1

   Abaqus 6.14-4                                  Date 24-Aug-2023   Time 17:19:12
   For use by T_EN NET SAS under license from Dassault Systemes or its subsidiary.

                                                                                 
                                                                                 
 STEP    1     INCREMENT     1     STEP TIME    0.00    


                        S T E P       1     S T A T I C   A N A L Y S I S


                                                                                          

     AUTOMATIC TIME CONTROL WITH -
          A SUGGESTED INITIAL TIME INCREMENT OF                0.100    
          AND A TOTAL TIME PERIOD OF                            1.00    
          THE MINIMUM TIME INCREMENT ALLOWED IS                1.000E-10
          THE MAXIMUM TIME INCREMENT ALLOWED IS                 1.00    

     LINEAR EQUATION SOLVER TYPE         DIRECT SPARSE

 CONVERGENCE TOLERANCE PARAMETERS FOR FORCE    
     CRITERION FOR RESIDUAL FORCE     FOR A NONLINEAR PROBLEM          5.000E-03
     CRITERION FOR DISP.    CORRECTION IN A NONLINEAR PROBLEM          1.000E-02
     INITIAL VALUE OF TIME AVERAGE FORCE                               1.000E-02
     AVERAGE FORCE     IS TIME AVERAGE FORCE    
     ALTERNATE CRIT. FOR RESIDUAL FORCE     FOR A NONLINEAR PROBLEM    2.000E-02
     CRITERION FOR ZERO FORCE     RELATIVE TO TIME AVRG. FORCE         1.000E-05
     CRITERION FOR RESIDUAL FORCE     WHEN THERE IS ZERO FLUX          1.000E-05
     CRITERION FOR DISP.    CORRECTION WHEN THERE IS ZERO FLUX         1.000E-03
     CRITERION FOR RESIDUAL FORCE     FOR A LINEAR INCREMENT           1.000E-08
     FIELD CONVERSION RATIO                                             1.00    
     CRITERION FOR ZERO FORCE     REL. TO TIME AVRG. MAX. FORCE        1.000E-05
     CRITERION FOR ZERO DISP.    RELATIVE TO CHARACTERISTIC LENGTH     1.000E-08

 CONVERGENCE TOLERANCE PARAMETERS FOR MOMENT   
     CRITERION FOR RESIDUAL MOMENT    FOR A NONLINEAR PROBLEM          5.000E-03
     CRITERION FOR ROTATION CORRECTION IN A NONLINEAR PROBLEM          1.000E-02
     INITIAL VALUE OF TIME AVERAGE MOMENT                              1.000E-02
     AVERAGE MOMENT    IS TIME AVERAGE MOMENT   
     ALTERNATE CRIT. FOR RESIDUAL MOMENT    FOR A NONLINEAR PROBLEM    2.000E-02
     CRITERION FOR ZERO MOMENT    RELATIVE TO TIME AVRG. MOMENT        1.000E-05
     CRITERION FOR RESIDUAL MOMENT    WHEN THERE IS ZERO FLUX          1.000E-05
     CRITERION FOR ROTATION CORRECTION WHEN THERE IS ZERO FLUX         1.000E-03
     CRITERION FOR RESIDUAL MOMENT    FOR A LINEAR INCREMENT           1.000E-08
     FIELD CONVERSION RATIO                                             1.00    
     CRITERION FOR ZERO MOMENT    REL. TO TIME AVRG. MAX. MOMENT       1.000E-05

     VOLUMETRIC STRAIN COMPATIBILITY TOLERANCE FOR HYBRID SOLIDS       1.000E-05
     AXIAL STRAIN COMPATIBILITY TOLERANCE FOR HYBRID BEAMS             1.000E-05
     TRANS. SHEAR STRAIN COMPATIBILITY TOLERANCE FOR HYBRID BEAMS      1.000E-05
     SOFT CONTACT CONSTRAINT COMPATIBILITY TOLERANCE FOR P>P0          5.000E-03
     SOFT CONTACT CONSTRAINT COMPATIBILITY TOLERANCE FOR P=0.0         0.100    
     CONTACT FORCE ERROR TOLERANCE FOR CONVERT SDI=YES                 1.00    
     DISPLACEMENT COMPATIBILITY TOLERANCE FOR DCOUP ELEMENTS           1.000E-05
     ROTATION COMPATIBILITY TOLERANCE FOR DCOUP ELEMENTS               1.000E-05

 EQUILIBRIUM WILL BE CHECKED FOR SEVERE DISCONTINUITY ITERATIONS

 TIME INCREMENTATION CONTROL PARAMETERS:
     FIRST EQUILIBRIUM ITERATION FOR CONSECUTIVE DIVERGENCE CHECK              4
     EQUILIBRIUM ITERATION AT WHICH LOG. CONVERGENCE RATE CHECK BEGINS         8
     EQUILIBRIUM ITERATION AFTER WHICH ALTERNATE RESIDUAL IS USED              9
     MAXIMUM EQUILIBRIUM ITERATIONS ALLOWED                                   16
     EQUILIBRIUM ITERATION COUNT FOR CUT-BACK IN NEXT INCREMENT               10
     MAXIMUM EQUILIB. ITERS IN TWO INCREMENTS FOR TIME INCREMENT INCREASE      4
     MAXIMUM ITERATIONS FOR SEVERE DISCONTINUITIES                            50
     MAXIMUM CUT-BACKS ALLOWED IN AN INCREMENT                                 5
     MAXIMUM DISCON. ITERS IN TWO INCREMENTS FOR TIME INCREMENT INCREASE      50
     MAXIMUM CONTACT AUGMENTATIONS FOR *SURFACE BEHAVIOR,AUGMENTED LAGRANGE   50
     CUT-BACK FACTOR AFTER DIVERGENCE                                 0.2500    
     CUT-BACK FACTOR FOR TOO SLOW CONVERGENCE                         0.5000    
     CUT-BACK FACTOR AFTER TOO MANY EQUILIBRIUM ITERATIONS            0.7500    
     CUT-BACK FACTOR AFTER TOO MANY SEVERE DISCONTINUITY ITERATIONS   0.2500    
     CUT-BACK FACTOR AFTER PROBLEMS IN ELEMENT ASSEMBLY               0.2500    
     INCREASE FACTOR AFTER TWO INCREMENTS THAT CONVERGE QUICKLY        1.500    
     MAX. TIME INCREMENT INCREASE FACTOR ALLOWED                       1.500    
     MAX. TIME INCREMENT INCREASE FACTOR ALLOWED (DYNAMICS)            1.250    
     MAX. TIME INCREMENT INCREASE FACTOR ALLOWED (DIFFUSION)           2.000    
     MINIMUM TIME INCREMENT RATIO FOR EXTRAPOLATION TO OCCUR          0.1000    
     MAX. RATIO OF TIME INCREMENT TO STABILITY LIMIT                   1.000    
     FRACTION OF STABILITY LIMIT FOR NEW TIME INCREMENT               0.9500    
     TIME INCREMENT INCREASE FACTOR BEFORE A TIME POINT                1.000    
     GLOBAL STABILIZATION CONTROL IS NOT USED

          PRINT OF INCREMENT NUMBER, TIME, ETC., EVERY    1  INCREMENTS

     THE MAXIMUM NUMBER OF INCREMENTS IN THIS STEP IS                     100

          LARGE DISPLACEMENT THEORY WILL BE USED

          UNSYMMETRIC MATRIX STORAGE AND SOLUTION WILL BE USED

     LINEAR EXTRAPOLATION WILL BE USED

     CHARACTERISTIC ELEMENT LENGTH      1.00    

     DETAILS REGARDING ACTUAL SOLUTION WAVEFRONT REQUESTED

     DETAILED OUTPUT OF DIAGNOSTICS TO DATABASE REQUESTED

     PRINT OF INCREMENT NUMBER, TIME, ETC., TO THE MESSAGE FILE EVERY     1  INCREMENTS

     ELEMENT OPERATIONS WILL BE CARRIED OUT IN PARALLEL USING   2 PROCESSORS

     PARALLEL CONTACT TRACKING ENABLED


     COLLECTING MODEL CONSTRAINT INFORMATION FOR OVERCONSTRAINT CHECKS

     COLLECTING STEP CONSTRAINT INFORMATION FOR OVERCONSTRAINT CHECKS
  
     ASYNCHRONOUS OUTPUT DATABASE FRAME FLUSH STARTED
  


  INCREMENT     1 STARTS. ATTEMPT NUMBER  1, TIME INCREMENT  0.100    
 
     INITIAL ELEMENT LOAD BALANCE
        COMPUTE NODE   1   PROCESS    NUMBER OF ELEMENTS
                              1            201
                              2            201

  NUMBER OF EQUATIONS =     1006     NUMBER OF FLOATING PT. OPERATIONS =  4.63E+05

  USING THE DIRECT SOLVER WITH   2 PROCESSORS

     CHECK POINT   START OF SOLVER    

     CHECK POINT  END OF SOLVER       

       ELAPSED USER TIME (SEC)      =  0.10000    
       ELAPSED SYSTEM TIME (SEC)    =   0.0000    
       ELAPSED TOTAL CPU TIME (SEC) =  0.10000    
       ELAPSED WALLCLOCK TIME (SEC) =          0

                   16 SEVERE DISCONTINUITIES OCCURRED DURING THIS ITERATION.
                   14 POINTS CHANGED FROM CLOSED TO OPEN
                    2 POINTS CHANGED FROM STICKING TO SLIPPING

               CONVERGENCE CHECKS FOR SEVERE DISCONTINUITY ITERATION     1

   MAX. PENETRATION ERROR -7.79373E-03 AT NODE 81 OF CONTACT PAIR 
   (PIPELINE,SEABED)
   MAX. CONTACT FORCE ERROR -75.3314      AT NODE 72 OF CONTACT PAIR 
   (PIPELINE,SEABED)
          PENETRATION ERROR TOO LARGE COMPARED TO DISPLACEMENT INCREMENT.

 AVERAGE FORCE                       52.1       TIME AVG. FORCE        52.1    
 LARGEST RESIDUAL FORCE            -1.559E+03   AT NODE        121   DOF  2
 LARGEST INCREMENT OF DISP.        -5.221E-02   AT NODE        101   DOF  2
 LARGEST CORRECTION TO DISP.       -5.221E-02   AT NODE        101   DOF  2
          FORCE     EQUILIBRIUM NOT ACHIEVED WITHIN TOLERANCE.

 AVERAGE MOMENT                     4.084E+03   TIME AVG. MOMENT      4.084E+03
 LARGEST RESIDUAL MOMENT           -2.001E-02   AT NODE         86   DOF  6
 LARGEST INCREMENT OF ROTATION     -3.136E-03   AT NODE         87   DOF  6
 LARGEST CORRECTION TO ROTATION    -3.136E-03   AT NODE         87   DOF  6
          ROTATION CORRECTION TOO LARGE COMPARED TO ROTATION INCREMENT

 COMPATIBILITY ERRORS:
    TYPE                NUMBER EXCEEDING TOLERANCE  MAXIMUM ERROR        IN ELEMENT
 BEAM AXIAL                          0                4.917E-06                115
 BEAM SHEAR                          0                1.033E-08                 86

  NUMBER OF EQUATIONS =     1006     NUMBER OF FLOATING PT. OPERATIONS =  3.45E+05

  USING THE DIRECT SOLVER WITH   2 PROCESSORS

     CHECK POINT   START OF SOLVER    

     CHECK POINT  END OF SOLVER       

       ELAPSED USER TIME (SEC)      =   0.0000    
       ELAPSED SYSTEM TIME (SEC)    =   0.0000    
       ELAPSED TOTAL CPU TIME (SEC) =   0.0000    
       ELAPSED WALLCLOCK TIME (SEC) =          0

                    8 SEVERE DISCONTINUITIES OCCURRED DURING THIS ITERATION.
                    8 POINTS CHANGED FROM CLOSED TO OPEN

               CONVERGENCE CHECKS FOR SEVERE DISCONTINUITY ITERATION     2

   MAX. PENETRATION ERROR -1.73472E-18 AT NODE 122 OF CONTACT PAIR 
   (PIPELINE,SEABED)
   MAX. CONTACT FORCE ERROR -98.7866      AT NODE 135 OF CONTACT PAIR 
   (PIPELINE,SEABED)
          THE CONTACT CONSTRAINT ERRORS ARE WITHIN THE TOLERANCES.

 AVERAGE FORCE                       269.       TIME AVG. FORCE        269.    
 LARGEST RESIDUAL FORCE              98.8       AT NODE        135   DOF  2
 LARGEST INCREMENT OF DISP.        -6.142E-02   AT NODE        101   DOF  2
 LARGEST CORRECTION TO DISP.       -9.210E-03   AT NODE        101   DOF  2
          FORCE     EQUILIBRIUM NOT ACHIEVED WITHIN TOLERANCE.

 AVERAGE MOMENT                     4.556E+03   TIME AVG. MOMENT      4.556E+03
 LARGEST RESIDUAL MOMENT            1.664E-02   AT NODE         86   DOF  6
 LARGEST INCREMENT OF ROTATION      3.565E-03   AT NODE        116   DOF  6
 LARGEST CORRECTION TO ROTATION    -6.107E-04   AT NODE         80   DOF  6
          ROTATION CORRECTION TOO LARGE COMPARED TO ROTATION INCREMENT

 COMPATIBILITY ERRORS:
    TYPE                NUMBER EXCEEDING TOLERANCE  MAXIMUM ERROR        IN ELEMENT
 BEAM AXIAL                          0                1.881E-07                121
 BEAM SHEAR                          0               -1.855E-09                 85

  NUMBER OF EQUATIONS =     1006     NUMBER OF FLOATING PT. OPERATIONS =  3.39E+05

  USING THE DIRECT SOLVER WITH   2 PROCESSORS

     CHECK POINT   START OF SOLVER    

     CHECK POINT  END OF SOLVER       

       ELAPSED USER TIME (SEC)      =  0.10000    
       ELAPSED SYSTEM TIME (SEC)    =   0.0000    
       ELAPSED TOTAL CPU TIME (SEC) =  0.10000    
       ELAPSED WALLCLOCK TIME (SEC) =          0

                    2 SEVERE DISCONTINUITIES OCCURRED DURING THIS ITERATION.
                    2 POINTS CHANGED FROM CLOSED TO OPEN

               CONVERGENCE CHECKS FOR SEVERE DISCONTINUITY ITERATION     3

   MAX. PENETRATION ERROR 433.681E-21   AT NODE 125 OF CONTACT PAIR 
   (PIPELINE,SEABED)
   MAX. CONTACT FORCE ERROR -29.2498      AT NODE 138 OF CONTACT PAIR 
   (PIPELINE,SEABED)
          THE CONTACT CONSTRAINT ERRORS ARE WITHIN THE TOLERANCES.

 AVERAGE FORCE                       276.       TIME AVG. FORCE        276.    
 LARGEST RESIDUAL FORCE              29.2       AT NODE        138   DOF  2
 LARGEST INCREMENT OF DISP.        -6.162E-02   AT NODE        101   DOF  2
 LARGEST CORRECTION TO DISP.        2.604E-04   AT NODE         68   DOF  2
          FORCE     EQUILIBRIUM NOT ACHIEVED WITHIN TOLERANCE.

 AVERAGE MOMENT                     4.523E+03   TIME AVG. MOMENT      4.523E+03
 LARGEST RESIDUAL MOMENT            1.051E-03   AT NODE         81   DOF  6
 LARGEST INCREMENT OF ROTATION      3.578E-03   AT NODE        116   DOF  6
 LARGEST CORRECTION TO ROTATION     3.162E-05   AT NODE         63   DOF  6
          THE MOMENT    EQUILIBRIUM EQUATIONS HAVE CONVERGED

 COMPATIBILITY ERRORS:
    TYPE                NUMBER EXCEEDING TOLERANCE  MAXIMUM ERROR        IN ELEMENT
 BEAM AXIAL                          0                4.992E-10                 63
 BEAM SHEAR                          0               -6.926E-12                 80

  NUMBER OF EQUATIONS =     1006     NUMBER OF FLOATING PT. OPERATIONS =  3.39E+05

  USING THE DIRECT SOLVER WITH   2 PROCESSORS

     CHECK POINT   START OF SOLVER    

     CHECK POINT  END OF SOLVER       

       ELAPSED USER TIME (SEC)      =  0.10000    
       ELAPSED SYSTEM TIME (SEC)    =   0.0000    
       ELAPSED TOTAL CPU TIME (SEC) =  0.10000    
       ELAPSED WALLCLOCK TIME (SEC) =          0

               CONVERGENCE CHECKS FOR EQUILIBRIUM ITERATION     1

   MAX. PENETRATION ERROR 1.73472E-18 AT NODE 122 OF CONTACT PAIR 
   (PIPELINE,SEABED)
          THE CONTACT CONSTRAINTS HAVE CONVERGED.

 AVERAGE FORCE                       277.       TIME AVG. FORCE        277.    
 LARGEST RESIDUAL FORCE             6.844E-05   AT NODE         64   DOF  1
 LARGEST INCREMENT OF DISP.        -6.166E-02   AT NODE        101   DOF  2
 LARGEST CORRECTION TO DISP.        3.805E-05   AT NODE         66   DOF  2
          THE FORCE     EQUILIBRIUM EQUATIONS HAVE CONVERGED

 AVERAGE MOMENT                     4.516E+03   TIME AVG. MOMENT      4.516E+03
 LARGEST RESIDUAL MOMENT            5.173E-05   AT NODE        147   DOF  6
 LARGEST INCREMENT OF ROTATION      3.581E-03   AT NODE        116   DOF  6
 LARGEST CORRECTION TO ROTATION     4.603E-06   AT NODE         61   DOF  6
          THE MOMENT    EQUILIBRIUM EQUATIONS HAVE CONVERGED

 COMPATIBILITY ERRORS:
    TYPE                NUMBER EXCEEDING TOLERANCE  MAXIMUM ERROR        IN ELEMENT
 BEAM AXIAL                          0                1.078E-11                 61
 BEAM SHEAR                          0                3.384E-14                 80

 ITERATION SUMMARY FOR THE INCREMENT:   4 TOTAL ITERATIONS, OF WHICH
   3 ARE SEVERE DISCONTINUITY ITERATIONS AND  1 ARE EQUILIBRIUM ITERATIONS.

 TIME INCREMENT COMPLETED  0.100    ,  FRACTION OF STEP COMPLETED  0.100    
 STEP TIME COMPLETED       0.100    ,  TOTAL TIME COMPLETED        0.100    
  
     ASYNCHRONOUS OUTPUT DATABASE FRAME FLUSH STARTED
  


  INCREMENT     2 STARTS. ATTEMPT NUMBER  1, TIME INCREMENT  0.100    

  NUMBER OF EQUATIONS =     1006     NUMBER OF FLOATING PT. OPERATIONS =  3.40E+05

  USING THE DIRECT SOLVER WITH   2 PROCESSORS

     CHECK POINT   START OF SOLVER    

     CHECK POINT  END OF SOLVER       

       ELAPSED USER TIME (SEC)      =  0.10000    
       ELAPSED SYSTEM TIME (SEC)    =  0.10000    
       ELAPSED TOTAL CPU TIME (SEC) =  0.20000    
       ELAPSED WALLCLOCK TIME (SEC) =          0

               CONVERGENCE CHECKS FOR EQUILIBRIUM ITERATION     1

   MAX. PENETRATION ERROR -3.46945E-18 AT NODE 122 OF CONTACT PAIR 
   (PIPELINE,SEABED)
          THE CONTACT CONSTRAINTS HAVE CONVERGED.

 AVERAGE FORCE                      2.409E+03   TIME AVG. FORCE       1.343E+03
 LARGEST RESIDUAL FORCE            -0.318       AT NODE        122   DOF  1
 LARGEST INCREMENT OF DISP.        -5.999E-02   AT NODE        101   DOF  2
 LARGEST CORRECTION TO DISP.        1.665E-03   AT NODE        101   DOF  2
 ESTIMATE OF DISP.    CORRECTION   -1.826E-05
 FORCE     EQUILIB. ACCEPTED BASED ON SMALL RESIDUAL AND ESTIMATED CORRECTION

 AVERAGE MOMENT                     1.683E+04   TIME AVG. MOMENT      1.067E+04
 LARGEST RESIDUAL MOMENT           -9.560E-02   AT NODE        117   DOF  6
 LARGEST INCREMENT OF ROTATION     -3.481E-03   AT NODE         86   DOF  6
 LARGEST CORRECTION TO ROTATION    -1.007E-04   AT NODE        115   DOF  6
          ROTATION CORRECTION TOO LARGE COMPARED TO ROTATION INCREMENT

 COMPATIBILITY ERRORS:
    TYPE                NUMBER EXCEEDING TOLERANCE  MAXIMUM ERROR        IN ELEMENT
 BEAM AXIAL                          0                5.080E-09                 87
 BEAM SHEAR                          0                7.397E-10                 87

  NUMBER OF EQUATIONS =     1006     NUMBER OF FLOATING PT. OPERATIONS =  3.40E+05

  USING THE DIRECT SOLVER WITH   2 PROCESSORS

     CHECK POINT   START OF SOLVER    

     CHECK POINT  END OF SOLVER       

       ELAPSED USER TIME (SEC)      =   0.0000    
       ELAPSED SYSTEM TIME (SEC)    =   0.0000    
       ELAPSED TOTAL CPU TIME (SEC) =   0.0000    
       ELAPSED WALLCLOCK TIME (SEC) =          0

               CONVERGENCE CHECKS FOR EQUILIBRIUM ITERATION     2

   MAX. PENETRATION ERROR -3.46945E-18 AT NODE 80 OF CONTACT PAIR 
   (PIPELINE,SEABED)
          THE CONTACT CONSTRAINTS HAVE CONVERGED.

 AVERAGE FORCE                      2.410E+03   TIME AVG. FORCE       1.343E+03
 LARGEST RESIDUAL FORCE             4.421E-06   AT NODE         80   DOF  1
 LARGEST INCREMENT OF DISP.        -6.001E-02   AT NODE        101   DOF  2
 LARGEST CORRECTION TO DISP.       -1.433E-05   AT NODE        101   DOF  2
          THE FORCE     EQUILIBRIUM EQUATIONS HAVE CONVERGED

 AVERAGE MOMENT                     1.683E+04   TIME AVG. MOMENT      1.067E+04
 LARGEST RESIDUAL MOMENT           -2.888E-05   AT NODE        116   DOF  6
 LARGEST INCREMENT OF ROTATION     -3.482E-03   AT NODE         86   DOF  6
 LARGEST CORRECTION TO ROTATION     8.515E-07   AT NODE        114   DOF  6
          THE MOMENT    EQUILIBRIUM EQUATIONS HAVE CONVERGED

 COMPATIBILITY ERRORS:
    TYPE                NUMBER EXCEEDING TOLERANCE  MAXIMUM ERROR        IN ELEMENT
 BEAM AXIAL                          0               -3.944E-13                100
 BEAM SHEAR                          0               -1.261E-13                 85
          TIME INCREMENT MAY NOW INCREASE TO    0.150    

 ITERATION SUMMARY FOR THE INCREMENT:   2 TOTAL ITERATIONS, OF WHICH
   0 ARE SEVERE DISCONTINUITY ITERATIONS AND  2 ARE EQUILIBRIUM ITERATIONS.

 TIME INCREMENT COMPLETED  0.100    ,  FRACTION OF STEP COMPLETED  0.200    
 STEP TIME COMPLETED       0.200    ,  TOTAL TIME COMPLETED        0.200    
  
     ASYNCHRONOUS OUTPUT DATABASE FRAME FLUSH STARTED
  


  INCREMENT     3 STARTS. ATTEMPT NUMBER  1, TIME INCREMENT  0.150    

  NUMBER OF EQUATIONS =     1006     NUMBER OF FLOATING PT. OPERATIONS =  3.40E+05

  USING THE DIRECT SOLVER WITH   2 PROCESSORS

     CHECK POINT   START OF SOLVER    

     CHECK POINT  END OF SOLVER       

       ELAPSED USER TIME (SEC)      =   0.0000    
       ELAPSED SYSTEM TIME (SEC)    =   0.0000    
       ELAPSED TOTAL CPU TIME (SEC) =   0.0000    
       ELAPSED WALLCLOCK TIME (SEC) =          0

               CONVERGENCE CHECKS FOR EQUILIBRIUM ITERATION     1

   MAX. PENETRATION ERROR 3.46945E-18 AT NODE 79 OF CONTACT PAIR 
   (PIPELINE,SEABED)
          THE CONTACT CONSTRAINTS HAVE CONVERGED.

 AVERAGE FORCE                      6.560E+03   TIME AVG. FORCE       3.082E+03
 LARGEST RESIDUAL FORCE             -1.65       AT NODE        122   DOF  1
 LARGEST INCREMENT OF DISP.        -8.417E-02   AT NODE        101   DOF  2
 LARGEST CORRECTION TO DISP.        5.845E-03   AT NODE        101   DOF  2
 ESTIMATE OF DISP.    CORRECTION    7.793E-05
 FORCE     EQUILIB. ACCEPTED BASED ON SMALL RESIDUAL AND ESTIMATED CORRECTION

 AVERAGE MOMENT                     2.913E+04   TIME AVG. MOMENT      1.682E+04
 LARGEST RESIDUAL MOMENT            0.292       AT NODE         85   DOF  6
 LARGEST INCREMENT OF ROTATION      4.872E-03   AT NODE        116   DOF  6
 LARGEST CORRECTION TO ROTATION     3.538E-04   AT NODE         87   DOF  6
          ROTATION CORRECTION TOO LARGE COMPARED TO ROTATION INCREMENT

 COMPATIBILITY ERRORS:
    TYPE                NUMBER EXCEEDING TOLERANCE  MAXIMUM ERROR        IN ELEMENT
 BEAM AXIAL                          0                6.265E-08                 87
 BEAM SHEAR                          0               -5.858E-09                115

  NUMBER OF EQUATIONS =     1006     NUMBER OF FLOATING PT. OPERATIONS =  3.39E+05

  USING THE DIRECT SOLVER WITH   2 PROCESSORS

     CHECK POINT   START OF SOLVER    

     CHECK POINT  END OF SOLVER       

       ELAPSED USER TIME (SEC)      =   0.0000    
       ELAPSED SYSTEM TIME (SEC)    =   0.0000    
       ELAPSED TOTAL CPU TIME (SEC) =   0.0000    
       ELAPSED WALLCLOCK TIME (SEC) =          0

               CONVERGENCE CHECKS FOR EQUILIBRIUM ITERATION     2

   MAX. PENETRATION ERROR -3.46945E-18 AT NODE 79 OF CONTACT PAIR 
   (PIPELINE,SEABED)
          THE CONTACT CONSTRAINTS HAVE CONVERGED.

 AVERAGE FORCE                      6.570E+03   TIME AVG. FORCE       3.086E+03
 LARGEST RESIDUAL FORCE             7.844E-05   AT NODE         75   DOF  1
 LARGEST INCREMENT OF DISP.        -8.423E-02   AT NODE        101   DOF  2
 LARGEST CORRECTION TO DISP.       -6.673E-05   AT NODE        101   DOF  2
          THE FORCE     EQUILIBRIUM EQUATIONS HAVE CONVERGED

 AVERAGE MOMENT                     2.913E+04   TIME AVG. MOMENT      1.683E+04
 LARGEST RESIDUAL MOMENT           -6.564E-04   AT NODE        116   DOF  6
 LARGEST INCREMENT OF ROTATION      4.876E-03   AT NODE        116   DOF  6
 LARGEST CORRECTION TO ROTATION    -3.988E-06   AT NODE         88   DOF  6
          THE MOMENT    EQUILIBRIUM EQUATIONS HAVE CONVERGED

 COMPATIBILITY ERRORS:
    TYPE                NUMBER EXCEEDING TOLERANCE  MAXIMUM ERROR        IN ELEMENT
 BEAM AXIAL                          0                8.213E-12                114
 BEAM SHEAR                          0               -2.958E-12                 85
          TIME INCREMENT MAY NOW INCREASE TO    0.225    

 ITERATION SUMMARY FOR THE INCREMENT:   2 TOTAL ITERATIONS, OF WHICH
   0 ARE SEVERE DISCONTINUITY ITERATIONS AND  2 ARE EQUILIBRIUM ITERATIONS.

 TIME INCREMENT COMPLETED  0.150    ,  FRACTION OF STEP COMPLETED  0.350    
 STEP TIME COMPLETED       0.350    ,  TOTAL TIME COMPLETED        0.350    
  
     ASYNCHRONOUS OUTPUT DATABASE FRAME FLUSH STARTED
  


  INCREMENT     4 STARTS. ATTEMPT NUMBER  1, TIME INCREMENT  0.225    

  NUMBER OF EQUATIONS =     1006     NUMBER OF FLOATING PT. OPERATIONS =  3.37E+05

  USING THE DIRECT SOLVER WITH   2 PROCESSORS

     CHECK POINT   START OF SOLVER    

     CHECK POINT  END OF SOLVER       

       ELAPSED USER TIME (SEC)      =   0.0000    
       ELAPSED SYSTEM TIME (SEC)    =   0.0000    
       ELAPSED TOTAL CPU TIME (SEC) =   0.0000    
       ELAPSED WALLCLOCK TIME (SEC) =          0

                    4 SEVERE DISCONTINUITIES OCCURRED DURING THIS ITERATION.
                    4 POINTS CHANGED FROM OPEN TO CLOSED

               CONVERGENCE CHECKS FOR SEVERE DISCONTINUITY ITERATION     1

   MAX. PENETRATION ERROR 402.996E-06   AT NODE 64 OF CONTACT PAIR 
   (PIPELINE,SEABED)
          THE CONTACT CONSTRAINT ERRORS ARE WITHIN THE TOLERANCES.

 AVERAGE FORCE                      1.505E+04   TIME AVG. FORCE       6.076E+03
 LARGEST RESIDUAL FORCE              6.04       AT NODE         80   DOF  1
 LARGEST INCREMENT OF DISP.        -0.110       AT NODE        101   DOF  2
 LARGEST CORRECTION TO DISP.        1.628E-02   AT NODE        101   DOF  2
          DISP.    CORRECTION TOO LARGE COMPARED TO DISP.    INCREMENT

 AVERAGE MOMENT                     4.730E+04   TIME AVG. MOMENT      2.444E+04
 LARGEST RESIDUAL MOMENT           -0.911       AT NODE        117   DOF  6
 LARGEST INCREMENT OF ROTATION     -6.338E-03   AT NODE         86   DOF  6
 LARGEST CORRECTION TO ROTATION    -9.859E-04   AT NODE        115   DOF  6
          ROTATION CORRECTION TOO LARGE COMPARED TO ROTATION INCREMENT

 COMPATIBILITY ERRORS:
    TYPE                NUMBER EXCEEDING TOLERANCE  MAXIMUM ERROR        IN ELEMENT
 BEAM AXIAL                          0                4.862E-07                 87
 BEAM SHEAR                          0               -3.572E-08                115

  NUMBER OF EQUATIONS =     1006     NUMBER OF FLOATING PT. OPERATIONS =  3.39E+05

  USING THE DIRECT SOLVER WITH   2 PROCESSORS

     CHECK POINT   START OF SOLVER    

     CHECK POINT  END OF SOLVER       

       ELAPSED USER TIME (SEC)      =   0.0000    
       ELAPSED SYSTEM TIME (SEC)    =   0.0000    
       ELAPSED TOTAL CPU TIME (SEC) =   0.0000    
       ELAPSED WALLCLOCK TIME (SEC) =          0

               CONVERGENCE CHECKS FOR EQUILIBRIUM ITERATION     1

   MAX. PENETRATION ERROR -3.46945E-18 AT NODE 77 OF CONTACT PAIR 
   (PIPELINE,SEABED)
          THE CONTACT CONSTRAINTS HAVE CONVERGED.

 AVERAGE FORCE                      1.494E+04   TIME AVG. FORCE       6.050E+03
 LARGEST RESIDUAL FORCE             4.151E-02   AT NODE        138   DOF  1
 LARGEST INCREMENT OF DISP.        -0.110       AT NODE        101   DOF  2
 LARGEST CORRECTION TO DISP.       -2.574E-04   AT NODE        101   DOF  2
          THE FORCE     EQUILIBRIUM EQUATIONS HAVE CONVERGED

 AVERAGE MOMENT                     4.644E+04   TIME AVG. MOMENT      2.423E+04
 LARGEST RESIDUAL MOMENT           -7.922E-03   AT NODE        116   DOF  6
 LARGEST INCREMENT OF ROTATION     -6.354E-03   AT NODE         86   DOF  6
 LARGEST CORRECTION TO ROTATION    -1.654E-05   AT NODE         82   DOF  6
          THE MOMENT    EQUILIBRIUM EQUATIONS HAVE CONVERGED

 COMPATIBILITY ERRORS:
    TYPE                NUMBER EXCEEDING TOLERANCE  MAXIMUM ERROR        IN ELEMENT
 BEAM AXIAL                          0                1.397E-10                118
 BEAM SHEAR                          0               -3.921E-11                 85
          TIME INCREMENT MAY NOW INCREASE TO    0.338    

 ITERATION SUMMARY FOR THE INCREMENT:   2 TOTAL ITERATIONS, OF WHICH
   1 ARE SEVERE DISCONTINUITY ITERATIONS AND  1 ARE EQUILIBRIUM ITERATIONS.

 TIME INCREMENT COMPLETED  0.225    ,  FRACTION OF STEP COMPLETED  0.575    
 STEP TIME COMPLETED       0.575    ,  TOTAL TIME COMPLETED        0.575    
  
     ASYNCHRONOUS OUTPUT DATABASE FRAME FLUSH STARTED
  


  INCREMENT     5 STARTS. ATTEMPT NUMBER  1, TIME INCREMENT  0.338    

  NUMBER OF EQUATIONS =     1006     NUMBER OF FLOATING PT. OPERATIONS =  3.39E+05

  USING THE DIRECT SOLVER WITH   2 PROCESSORS

     CHECK POINT   START OF SOLVER    

     CHECK POINT  END OF SOLVER       

       ELAPSED USER TIME (SEC)      =   0.0000    
       ELAPSED SYSTEM TIME (SEC)    =   0.0000    
       ELAPSED TOTAL CPU TIME (SEC) =   0.0000    
       ELAPSED WALLCLOCK TIME (SEC) =          0

                    2 SEVERE DISCONTINUITIES OCCURRED DURING THIS ITERATION.
                    2 POINTS CHANGED FROM OPEN TO CLOSED

               CONVERGENCE CHECKS FOR SEVERE DISCONTINUITY ITERATION     1

   MAX. PENETRATION ERROR 868.783E-06   AT NODE 65 OF CONTACT PAIR 
   (PIPELINE,SEABED)
          PENETRATION ERROR TOO LARGE COMPARED TO DISPLACEMENT INCREMENT.

 AVERAGE FORCE                      2.957E+04   TIME AVG. FORCE       1.075E+04
 LARGEST RESIDUAL FORCE             -8.51       AT NODE        122   DOF  1
 LARGEST INCREMENT OF DISP.        -0.133       AT NODE        101   DOF  2
 LARGEST CORRECTION TO DISP.        3.242E-02   AT NODE        101   DOF  2
          DISP.    CORRECTION TOO LARGE COMPARED TO DISP.    INCREMENT

 AVERAGE MOMENT                     7.280E+04   TIME AVG. MOMENT      3.394E+04
 LARGEST RESIDUAL MOMENT            -2.29       AT NODE        117   DOF  6
 LARGEST INCREMENT OF ROTATION      7.600E-03   AT NODE        117   DOF  6
 LARGEST CORRECTION TO ROTATION     1.959E-03   AT NODE         87   DOF  6
          ROTATION CORRECTION TOO LARGE COMPARED TO ROTATION INCREMENT

 COMPATIBILITY ERRORS:
    TYPE                NUMBER EXCEEDING TOLERANCE  MAXIMUM ERROR        IN ELEMENT
 BEAM AXIAL                          0                1.922E-06                114
 BEAM SHEAR                          0                1.269E-07                 86

  NUMBER OF EQUATIONS =     1006     NUMBER OF FLOATING PT. OPERATIONS =  3.40E+05

  USING THE DIRECT SOLVER WITH   2 PROCESSORS

     CHECK POINT   START OF SOLVER    

     CHECK POINT  END OF SOLVER       

       ELAPSED USER TIME (SEC)      =  0.10000    
       ELAPSED SYSTEM TIME (SEC)    =   0.0000    
       ELAPSED TOTAL CPU TIME (SEC) =  0.10000    
       ELAPSED WALLCLOCK TIME (SEC) =          0

               CONVERGENCE CHECKS FOR EQUILIBRIUM ITERATION     1

   MAX. PENETRATION ERROR 13.8778E-18  AT NODE 80 OF CONTACT PAIR 
   (PIPELINE,SEABED)
          THE CONTACT CONSTRAINTS HAVE CONVERGED.

 AVERAGE FORCE                      2.962E+04   TIME AVG. FORCE       1.076E+04
 LARGEST RESIDUAL FORCE             0.259       AT NODE        137   DOF  1
 LARGEST INCREMENT OF DISP.        -0.133       AT NODE        101   DOF  2
 LARGEST CORRECTION TO DISP.        1.576E-04   AT NODE         67   DOF  2
          THE FORCE     EQUILIBRIUM EQUATIONS HAVE CONVERGED

 AVERAGE MOMENT                     7.179E+04   TIME AVG. MOMENT      3.374E+04
 LARGEST RESIDUAL MOMENT            4.779E-02   AT NODE         86   DOF  6
 LARGEST INCREMENT OF ROTATION     -7.608E-03   AT NODE         85   DOF  6
 LARGEST CORRECTION TO ROTATION     1.934E-05   AT NODE         62   DOF  6
          THE MOMENT    EQUILIBRIUM EQUATIONS HAVE CONVERGED

 COMPATIBILITY ERRORS:
    TYPE                NUMBER EXCEEDING TOLERANCE  MAXIMUM ERROR        IN ELEMENT
 BEAM AXIAL                          0                1.815E-10                 62
 BEAM SHEAR                          0               -2.171E-10                 85

 ITERATION SUMMARY FOR THE INCREMENT:   2 TOTAL ITERATIONS, OF WHICH
   1 ARE SEVERE DISCONTINUITY ITERATIONS AND  1 ARE EQUILIBRIUM ITERATIONS.

 TIME INCREMENT COMPLETED  0.338    ,  FRACTION OF STEP COMPLETED  0.913    
 STEP TIME COMPLETED       0.913    ,  TOTAL TIME COMPLETED        0.913    
  
     ASYNCHRONOUS OUTPUT DATABASE FRAME FLUSH STARTED
  


  INCREMENT     6 STARTS. ATTEMPT NUMBER  1, TIME INCREMENT  8.750E-02

  NUMBER OF EQUATIONS =     1006     NUMBER OF FLOATING PT. OPERATIONS =  3.40E+05

  USING THE DIRECT SOLVER WITH   2 PROCESSORS

     CHECK POINT   START OF SOLVER    

     CHECK POINT  END OF SOLVER       

       ELAPSED USER TIME (SEC)      =  0.10000    
       ELAPSED SYSTEM TIME (SEC)    =  0.10000    
       ELAPSED TOTAL CPU TIME (SEC) =  0.20000    
       ELAPSED WALLCLOCK TIME (SEC) =          0

                    2 SEVERE DISCONTINUITIES OCCURRED DURING THIS ITERATION.
                    2 POINTS CHANGED FROM OPEN TO CLOSED

               CONVERGENCE CHECKS FOR SEVERE DISCONTINUITY ITERATION     1

   MAX. PENETRATION ERROR 45.7852E-06  AT NODE 66 OF CONTACT PAIR 
   (PIPELINE,SEABED)
          THE CONTACT CONSTRAINT ERRORS ARE WITHIN THE TOLERANCES.

 AVERAGE FORCE                      3.373E+04   TIME AVG. FORCE       1.459E+04
 LARGEST RESIDUAL FORCE             8.039E-02   AT NODE        122   DOF  2
 LARGEST INCREMENT OF DISP.        -2.948E-02   AT NODE        101   DOF  2
 LARGEST CORRECTION TO DISP.        5.057E-03   AT NODE        101   DOF  2
          DISP.    CORRECTION TOO LARGE COMPARED TO DISP.    INCREMENT

 AVERAGE MOMENT                     8.190E+04   TIME AVG. MOMENT      4.177E+04
 LARGEST RESIDUAL MOMENT           -0.321       AT NODE        118   DOF  6
 LARGEST INCREMENT OF ROTATION      1.676E-03   AT NODE        117   DOF  6
 LARGEST CORRECTION TO ROTATION     3.067E-04   AT NODE         87   DOF  6
          ROTATION CORRECTION TOO LARGE COMPARED TO ROTATION INCREMENT

 COMPATIBILITY ERRORS:
    TYPE                NUMBER EXCEEDING TOLERANCE  MAXIMUM ERROR        IN ELEMENT
 BEAM AXIAL                          0                4.721E-08                 87
 BEAM SHEAR                          0                1.576E-09                 87

  NUMBER OF EQUATIONS =     1006     NUMBER OF FLOATING PT. OPERATIONS =  3.42E+05

  USING THE DIRECT SOLVER WITH   2 PROCESSORS

     CHECK POINT   START OF SOLVER    

     CHECK POINT  END OF SOLVER       

       ELAPSED USER TIME (SEC)      =   0.0000    
       ELAPSED SYSTEM TIME (SEC)    =   0.0000    
       ELAPSED TOTAL CPU TIME (SEC) =   0.0000    
       ELAPSED WALLCLOCK TIME (SEC) =          0

               CONVERGENCE CHECKS FOR EQUILIBRIUM ITERATION     1

   MAX. PENETRATION ERROR 6.93889E-18 AT NODE 79 OF CONTACT PAIR 
   (PIPELINE,SEABED)
          THE CONTACT CONSTRAINTS HAVE CONVERGED.

 AVERAGE FORCE                      3.366E+04   TIME AVG. FORCE       1.458E+04
 LARGEST RESIDUAL FORCE             4.258E-04   AT NODE        136   DOF  1
 LARGEST INCREMENT OF DISP.        -2.948E-02   AT NODE        101   DOF  2
 LARGEST CORRECTION TO DISP.        7.634E-06   AT NODE         67   DOF  2
          THE FORCE     EQUILIBRIUM EQUATIONS HAVE CONVERGED

 AVERAGE MOMENT                     8.150E+04   TIME AVG. MOMENT      4.170E+04
 LARGEST RESIDUAL MOMENT            1.266E-03   AT NODE         86   DOF  6
 LARGEST INCREMENT OF ROTATION      1.676E-03   AT NODE        117   DOF  6
 LARGEST CORRECTION TO ROTATION     9.387E-07   AT NODE         63   DOF  6
          THE MOMENT    EQUILIBRIUM EQUATIONS HAVE CONVERGED

 COMPATIBILITY ERRORS:
    TYPE                NUMBER EXCEEDING TOLERANCE  MAXIMUM ERROR        IN ELEMENT
 BEAM AXIAL                          0                1.688E-12                 78
 BEAM SHEAR                          0                5.538E-12                117

 ITERATION SUMMARY FOR THE INCREMENT:   2 TOTAL ITERATIONS, OF WHICH
   1 ARE SEVERE DISCONTINUITY ITERATIONS AND  1 ARE EQUILIBRIUM ITERATIONS.

 TIME INCREMENT COMPLETED  8.750E-02,  FRACTION OF STEP COMPLETED   1.00    
 STEP TIME COMPLETED        1.00    ,  TOTAL TIME COMPLETED         1.00    
1

   Abaqus 6.14-4                                  Date 24-Aug-2023   Time 17:19:15
   For use by T_EN NET SAS under license from Dassault Systemes or its subsidiary.

                                                                                 
                                                                                 
 STEP    2     INCREMENT     1     STEP TIME    0.00    


                        S T E P       2     S T A T I C   A N A L Y S I S


                                                                                          

     AUTOMATIC TIME CONTROL WITH -
          A SUGGESTED INITIAL TIME INCREMENT OF                0.100    
          AND A TOTAL TIME PERIOD OF                            1.00    
          THE MINIMUM TIME INCREMENT ALLOWED IS                1.000E-10
          THE MAXIMUM TIME INCREMENT ALLOWED IS                 1.00    

     LINEAR EQUATION SOLVER TYPE         DIRECT SPARSE

 CONVERGENCE TOLERANCE PARAMETERS FOR FORCE    
     CRITERION FOR RESIDUAL FORCE     FOR A NONLINEAR PROBLEM          5.000E-03
     CRITERION FOR DISP.    CORRECTION IN A NONLINEAR PROBLEM          1.000E-02
     INIT. VALUE OF TIME AVG. FORCE     IS TIME AVG. FORCE     IN PREVIOUS STEP
     AVERAGE FORCE     IS TIME AVERAGE FORCE    
     ALTERNATE CRIT. FOR RESIDUAL FORCE     FOR A NONLINEAR PROBLEM    2.000E-02
     CRITERION FOR ZERO FORCE     RELATIVE TO TIME AVRG. FORCE         1.000E-05
     CRITERION FOR RESIDUAL FORCE     WHEN THERE IS ZERO FLUX          1.000E-05
     CRITERION FOR DISP.    CORRECTION WHEN THERE IS ZERO FLUX         1.000E-03
     CRITERION FOR RESIDUAL FORCE     FOR A LINEAR INCREMENT           1.000E-08
     FIELD CONVERSION RATIO                                             1.00    
     CRITERION FOR ZERO FORCE     REL. TO TIME AVRG. MAX. FORCE        1.000E-05
     CRITERION FOR ZERO DISP.    RELATIVE TO CHARACTERISTIC LENGTH     1.000E-08

 CONVERGENCE TOLERANCE PARAMETERS FOR MOMENT   
     CRITERION FOR RESIDUAL MOMENT    FOR A NONLINEAR PROBLEM          5.000E-03
     CRITERION FOR ROTATION CORRECTION IN A NONLINEAR PROBLEM          1.000E-02
     INIT. VALUE OF TIME AVG. MOMENT    IS TIME AVG. MOMENT    IN PREVIOUS STEP
     AVERAGE MOMENT    IS TIME AVERAGE MOMENT   
     ALTERNATE CRIT. FOR RESIDUAL MOMENT    FOR A NONLINEAR PROBLEM    2.000E-02
     CRITERION FOR ZERO MOMENT    RELATIVE TO TIME AVRG. MOMENT        1.000E-05
     CRITERION FOR RESIDUAL MOMENT    WHEN THERE IS ZERO FLUX          1.000E-05
     CRITERION FOR ROTATION CORRECTION WHEN THERE IS ZERO FLUX         1.000E-03
     CRITERION FOR RESIDUAL MOMENT    FOR A LINEAR INCREMENT           1.000E-08
     FIELD CONVERSION RATIO                                             1.00    
     CRITERION FOR ZERO MOMENT    REL. TO TIME AVRG. MAX. MOMENT       1.000E-05

     VOLUMETRIC STRAIN COMPATIBILITY TOLERANCE FOR HYBRID SOLIDS       1.000E-05
     AXIAL STRAIN COMPATIBILITY TOLERANCE FOR HYBRID BEAMS             1.000E-05
     TRANS. SHEAR STRAIN COMPATIBILITY TOLERANCE FOR HYBRID BEAMS      1.000E-05
     SOFT CONTACT CONSTRAINT COMPATIBILITY TOLERANCE FOR P>P0          5.000E-03
     SOFT CONTACT CONSTRAINT COMPATIBILITY TOLERANCE FOR P=0.0         0.100    
     CONTACT FORCE ERROR TOLERANCE FOR CONVERT SDI=YES                 1.00    
     DISPLACEMENT COMPATIBILITY TOLERANCE FOR DCOUP ELEMENTS           1.000E-05
     ROTATION COMPATIBILITY TOLERANCE FOR DCOUP ELEMENTS               1.000E-05

 EQUILIBRIUM WILL BE CHECKED FOR SEVERE DISCONTINUITY ITERATIONS

 TIME INCREMENTATION CONTROL PARAMETERS:
     FIRST EQUILIBRIUM ITERATION FOR CONSECUTIVE DIVERGENCE CHECK              4
     EQUILIBRIUM ITERATION AT WHICH LOG. CONVERGENCE RATE CHECK BEGINS         8
     EQUILIBRIUM ITERATION AFTER WHICH ALTERNATE RESIDUAL IS USED              9
     MAXIMUM EQUILIBRIUM ITERATIONS ALLOWED                                   16
     EQUILIBRIUM ITERATION COUNT FOR CUT-BACK IN NEXT INCREMENT               10
     MAXIMUM EQUILIB. ITERS IN TWO INCREMENTS FOR TIME INCREMENT INCREASE      4
     MAXIMUM ITERATIONS FOR SEVERE DISCONTINUITIES                            50
     MAXIMUM CUT-BACKS ALLOWED IN AN INCREMENT                                 5
     MAXIMUM DISCON. ITERS IN TWO INCREMENTS FOR TIME INCREMENT INCREASE      50
     MAXIMUM CONTACT AUGMENTATIONS FOR *SURFACE BEHAVIOR,AUGMENTED LAGRANGE   50
     CUT-BACK FACTOR AFTER DIVERGENCE                                 0.2500    
     CUT-BACK FACTOR FOR TOO SLOW CONVERGENCE                         0.5000    
     CUT-BACK FACTOR AFTER TOO MANY EQUILIBRIUM ITERATIONS            0.7500    
     CUT-BACK FACTOR AFTER TOO MANY SEVERE DISCONTINUITY ITERATIONS   0.2500    
     CUT-BACK FACTOR AFTER PROBLEMS IN ELEMENT ASSEMBLY               0.2500    
     INCREASE FACTOR AFTER TWO INCREMENTS THAT CONVERGE QUICKLY        1.500    
     MAX. TIME INCREMENT INCREASE FACTOR ALLOWED                       1.500    
     MAX. TIME INCREMENT INCREASE FACTOR ALLOWED (DYNAMICS)            1.250    
     MAX. TIME INCREMENT INCREASE FACTOR ALLOWED (DIFFUSION)           2.000    
     MINIMUM TIME INCREMENT RATIO FOR EXTRAPOLATION TO OCCUR          0.1000    
     MAX. RATIO OF TIME INCREMENT TO STABILITY LIMIT                   1.000    
     FRACTION OF STABILITY LIMIT FOR NEW TIME INCREMENT               0.9500    
     TIME INCREMENT INCREASE FACTOR BEFORE A TIME POINT                1.000    
     GLOBAL STABILIZATION CONTROL IS NOT USED

          PRINT OF INCREMENT NUMBER, TIME, ETC., EVERY    1  INCREMENTS

     THE MAXIMUM NUMBER OF INCREMENTS IN THIS STEP IS                     100

          LARGE DISPLACEMENT THEORY WILL BE USED

          UNSYMMETRIC MATRIX STORAGE AND SOLUTION WILL BE USED

     LINEAR EXTRAPOLATION WILL BE USED

     CHARACTERISTIC ELEMENT LENGTH      1.00    

     DETAILS REGARDING ACTUAL SOLUTION WAVEFRONT REQUESTED

     DETAILED OUTPUT OF DIAGNOSTICS TO DATABASE REQUESTED

     PRINT OF INCREMENT NUMBER, TIME, ETC., TO THE MESSAGE FILE EVERY     1  INCREMENTS

     ELEMENT OPERATIONS WILL BE CARRIED OUT IN PARALLEL USING   2 PROCESSORS

     COLLECTING STEP CONSTRAINT INFORMATION FOR OVERCONSTRAINT CHECKS
  
     ASYNCHRONOUS OUTPUT DATABASE FRAME FLUSH STARTED
  


  INCREMENT     1 STARTS. ATTEMPT NUMBER  1, TIME INCREMENT  0.100    
 
     INITIAL ELEMENT LOAD BALANCE
        COMPUTE NODE   1   PROCESS    NUMBER OF ELEMENTS
                              1            201
                              2            201

  NUMBER OF EQUATIONS =     1006     NUMBER OF FLOATING PT. OPERATIONS =  3.42E+05

  USING THE DIRECT SOLVER WITH   2 PROCESSORS

     CHECK POINT   START OF SOLVER    

     CHECK POINT  END OF SOLVER       

       ELAPSED USER TIME (SEC)      =   0.0000    
       ELAPSED SYSTEM TIME (SEC)    =   0.0000    
       ELAPSED TOTAL CPU TIME (SEC) =   0.0000    
       ELAPSED WALLCLOCK TIME (SEC) =          0

                    2 SEVERE DISCONTINUITIES OCCURRED DURING THIS ITERATION.
                    2 POINTS CHANGED FROM CLOSED TO OPEN

               CONVERGENCE CHECKS FOR SEVERE DISCONTINUITY ITERATION     1

   MAX. PENETRATION ERROR -6.93889E-18 AT NODE 124 OF CONTACT PAIR 
   (PIPELINE,SEABED)
   MAX. CONTACT FORCE ERROR -66.4704      AT NODE 66 OF CONTACT PAIR 
   (PIPELINE,SEABED)
          THE CONTACT CONSTRAINT ERRORS ARE WITHIN THE TOLERANCES.

 AVERAGE FORCE                      5.728E+04   TIME AVG. FORCE       5.728E+04
 LARGEST RESIDUAL FORCE              66.5       AT NODE         66   DOF  2
 LARGEST INCREMENT OF DISP.        -1.271E-02   AT NODE        101   DOF  2
 LARGEST CORRECTION TO DISP.       -1.271E-02   AT NODE        101   DOF  2
          DISP.    CORRECTION TOO LARGE COMPARED TO DISP.    INCREMENT

 AVERAGE MOMENT                     8.332E+04   TIME AVG. MOMENT      8.332E+04
 LARGEST RESIDUAL MOMENT           -0.168       AT NODE         81   DOF  6
 LARGEST INCREMENT OF ROTATION     -7.683E-04   AT NODE         87   DOF  6
 LARGEST CORRECTION TO ROTATION    -7.683E-04   AT NODE         87   DOF  6
          ROTATION CORRECTION TOO LARGE COMPARED TO ROTATION INCREMENT

 COMPATIBILITY ERRORS:
    TYPE                NUMBER EXCEEDING TOLERANCE  MAXIMUM ERROR        IN ELEMENT
 BEAM AXIAL                          0                2.953E-07                114
 BEAM SHEAR                          0                3.054E-09                 86

  NUMBER OF EQUATIONS =     1006     NUMBER OF FLOATING PT. OPERATIONS =  3.40E+05

  USING THE DIRECT SOLVER WITH   2 PROCESSORS

     CHECK POINT   START OF SOLVER    

     CHECK POINT  END OF SOLVER       

       ELAPSED USER TIME (SEC)      =  0.10000    
       ELAPSED SYSTEM TIME (SEC)    =   0.0000    
       ELAPSED TOTAL CPU TIME (SEC) =  0.10000    
       ELAPSED WALLCLOCK TIME (SEC) =          0

               CONVERGENCE CHECKS FOR EQUILIBRIUM ITERATION     1

   MAX. PENETRATION ERROR -6.93889E-18 AT NODE 78 OF CONTACT PAIR 
   (PIPELINE,SEABED)
          THE CONTACT CONSTRAINTS HAVE CONVERGED.

 AVERAGE FORCE                      5.721E+04   TIME AVG. FORCE       5.721E+04
 LARGEST RESIDUAL FORCE             3.630E-03   AT NODE         65   DOF  1
 LARGEST INCREMENT OF DISP.        -1.271E-02   AT NODE        101   DOF  2
 LARGEST CORRECTION TO DISP.        6.646E-05   AT NODE         67   DOF  2
          THE FORCE     EQUILIBRIUM EQUATIONS HAVE CONVERGED

 AVERAGE MOMENT                     8.328E+04   TIME AVG. MOMENT      8.328E+04
 LARGEST RESIDUAL MOMENT           -8.189E-03   AT NODE        116   DOF  6
 LARGEST INCREMENT OF ROTATION     -7.681E-04   AT NODE         87   DOF  6
 LARGEST CORRECTION TO ROTATION     8.188E-06   AT NODE         63   DOF  6
 ESTIMATE OF ROTATION CORRECTION   -1.768E-06
 MOMENT    EQUILIB. ACCEPTED BASED ON SMALL RESIDUAL AND ESTIMATED CORRECTION

 COMPATIBILITY ERRORS:
    TYPE                NUMBER EXCEEDING TOLERANCE  MAXIMUM ERROR        IN ELEMENT
 BEAM AXIAL                          0                3.247E-11                138
 BEAM SHEAR                          0               -3.543E-11                 84

 ITERATION SUMMARY FOR THE INCREMENT:   2 TOTAL ITERATIONS, OF WHICH
   1 ARE SEVERE DISCONTINUITY ITERATIONS AND  1 ARE EQUILIBRIUM ITERATIONS.

 TIME INCREMENT COMPLETED  0.100    ,  FRACTION OF STEP COMPLETED  0.100    
 STEP TIME COMPLETED       0.100    ,  TOTAL TIME COMPLETED         1.10    
  
     ASYNCHRONOUS OUTPUT DATABASE FRAME FLUSH STARTED
  


  INCREMENT     2 STARTS. ATTEMPT NUMBER  1, TIME INCREMENT  0.100    

  NUMBER OF EQUATIONS =     1006     NUMBER OF FLOATING PT. OPERATIONS =  3.40E+05

  USING THE DIRECT SOLVER WITH   2 PROCESSORS

     CHECK POINT   START OF SOLVER    

     CHECK POINT  END OF SOLVER       

       ELAPSED USER TIME (SEC)      =  0.10000    
       ELAPSED SYSTEM TIME (SEC)    =  0.10000    
       ELAPSED TOTAL CPU TIME (SEC) =  0.20000    
       ELAPSED WALLCLOCK TIME (SEC) =          0

               CONVERGENCE CHECKS FOR EQUILIBRIUM ITERATION     1

   MAX. PENETRATION ERROR -13.8778E-18  AT NODE 122 OF CONTACT PAIR 
   (PIPELINE,SEABED)
          THE CONTACT CONSTRAINTS HAVE CONVERGED.

 AVERAGE FORCE                      9.407E+04   TIME AVG. FORCE       7.564E+04
 LARGEST RESIDUAL FORCE            -5.905E-03   AT NODE         80   DOF  1
 LARGEST INCREMENT OF DISP.        -1.307E-02   AT NODE        101   DOF  2
 LARGEST CORRECTION TO DISP.       -3.594E-04   AT NODE        101   DOF  2
 ESTIMATE OF DISP.    CORRECTION   -2.319E-07
 FORCE     EQUILIB. ACCEPTED BASED ON SMALL RESIDUAL AND ESTIMATED CORRECTION

 AVERAGE MOMENT                     8.388E+04   TIME AVG. MOMENT      8.358E+04
 LARGEST RESIDUAL MOMENT            1.399E-02   AT NODE         86   DOF  6
 LARGEST INCREMENT OF ROTATION      7.896E-04   AT NODE        115   DOF  6
 LARGEST CORRECTION TO ROTATION     2.163E-05   AT NODE        114   DOF  6
          ROTATION CORRECTION TOO LARGE COMPARED TO ROTATION INCREMENT

 COMPATIBILITY ERRORS:
    TYPE                NUMBER EXCEEDING TOLERANCE  MAXIMUM ERROR        IN ELEMENT
 BEAM AXIAL                          0                2.409E-10                114
 BEAM SHEAR                          0               -6.621E-11                 85

  NUMBER OF EQUATIONS =     1006     NUMBER OF FLOATING PT. OPERATIONS =  3.40E+05

  USING THE DIRECT SOLVER WITH   2 PROCESSORS

     CHECK POINT   START OF SOLVER    

     CHECK POINT  END OF SOLVER       

       ELAPSED USER TIME (SEC)      =   0.0000    
       ELAPSED SYSTEM TIME (SEC)    =   0.0000    
       ELAPSED TOTAL CPU TIME (SEC) =   0.0000    
       ELAPSED WALLCLOCK TIME (SEC) =          0

               CONVERGENCE CHECKS FOR EQUILIBRIUM ITERATION     2

   MAX. PENETRATION ERROR 13.8778E-18  AT NODE 122 OF CONTACT PAIR 
   (PIPELINE,SEABED)
          THE CONTACT CONSTRAINTS HAVE CONVERGED.

 AVERAGE FORCE                      9.407E+04   TIME AVG. FORCE       7.564E+04
 LARGEST RESIDUAL FORCE             5.354E-07   AT NODE         81   DOF  2
 LARGEST INCREMENT OF DISP.        -1.307E-02   AT NODE        101   DOF  2
 LARGEST CORRECTION TO DISP.        2.231E-07   AT NODE        101   DOF  2
          THE FORCE     EQUILIBRIUM EQUATIONS HAVE CONVERGED

 AVERAGE MOMENT                     8.388E+04   TIME AVG. MOMENT      8.358E+04
 LARGEST RESIDUAL MOMENT           -8.859E-06   AT NODE        116   DOF  6
 LARGEST INCREMENT OF ROTATION      7.896E-04   AT NODE        115   DOF  6
 LARGEST CORRECTION TO ROTATION    -1.565E-08   AT NODE        115   DOF  6
          THE MOMENT    EQUILIBRIUM EQUATIONS HAVE CONVERGED

 COMPATIBILITY ERRORS:
    TYPE                NUMBER EXCEEDING TOLERANCE  MAXIMUM ERROR        IN ELEMENT
 BEAM AXIAL                          0                3.469E-14                103
 BEAM SHEAR                          0                3.956E-14                116
          TIME INCREMENT MAY NOW INCREASE TO    0.150    

 ITERATION SUMMARY FOR THE INCREMENT:   2 TOTAL ITERATIONS, OF WHICH
   0 ARE SEVERE DISCONTINUITY ITERATIONS AND  2 ARE EQUILIBRIUM ITERATIONS.

 TIME INCREMENT COMPLETED  0.100    ,  FRACTION OF STEP COMPLETED  0.200    
 STEP TIME COMPLETED       0.200    ,  TOTAL TIME COMPLETED         1.20    
  
     ASYNCHRONOUS OUTPUT DATABASE FRAME FLUSH STARTED
  


  INCREMENT     3 STARTS. ATTEMPT NUMBER  1, TIME INCREMENT  0.150    

                    2 SEVERE DISCONTINUITIES OCCURRED DURING INCREMENT ATTEMPT INITIALIZATION.
                    2 POINTS CHANGED TO SLIPPING WITH NEGATIVE CPRESS

  NUMBER OF EQUATIONS =     1006     NUMBER OF FLOATING PT. OPERATIONS =  3.40E+05

  USING THE DIRECT SOLVER WITH   2 PROCESSORS

     CHECK POINT   START OF SOLVER    

     CHECK POINT  END OF SOLVER       

       ELAPSED USER TIME (SEC)      =  0.10000    
       ELAPSED SYSTEM TIME (SEC)    =   0.0000    
       ELAPSED TOTAL CPU TIME (SEC) =  0.10000    
       ELAPSED WALLCLOCK TIME (SEC) =          0

                    2 SEVERE DISCONTINUITIES OCCURRED DURING THIS ITERATION.
                    2 POINTS CHANGED FROM CLOSED TO OPEN

               CONVERGENCE CHECKS FOR SEVERE DISCONTINUITY ITERATION     1

   MAX. PENETRATION ERROR -13.8778E-18  AT NODE 79 OF CONTACT PAIR 
   (PIPELINE,SEABED)
   MAX. CONTACT FORCE ERROR -29.3216      AT NODE 65 OF CONTACT PAIR 
   (PIPELINE,SEABED)
          THE CONTACT CONSTRAINT ERRORS ARE WITHIN THE TOLERANCES.

 AVERAGE FORCE                      1.493E+05   TIME AVG. FORCE       1.002E+05
 LARGEST RESIDUAL FORCE              29.3       AT NODE         65   DOF  2
 LARGEST INCREMENT OF DISP.        -2.025E-02   AT NODE        101   DOF  2
 LARGEST CORRECTION TO DISP.       -6.389E-04   AT NODE        101   DOF  2
          DISP.    CORRECTION TOO LARGE COMPARED TO DISP.    INCREMENT

 AVERAGE MOMENT                     8.524E+04   TIME AVG. MOMENT      8.413E+04
 LARGEST RESIDUAL MOMENT            2.930E-02   AT NODE         86   DOF  6
 LARGEST INCREMENT OF ROTATION     -1.223E-03   AT NODE         87   DOF  6
 LARGEST CORRECTION TO ROTATION    -3.857E-05   AT NODE         88   DOF  6
          ROTATION CORRECTION TOO LARGE COMPARED TO ROTATION INCREMENT

 COMPATIBILITY ERRORS:
    TYPE                NUMBER EXCEEDING TOLERANCE  MAXIMUM ERROR        IN ELEMENT
 BEAM AXIAL                          0                7.528E-10                114
 BEAM SHEAR                          0                1.501E-10                116

  NUMBER OF EQUATIONS =     1006     NUMBER OF FLOATING PT. OPERATIONS =  3.38E+05

  USING THE DIRECT SOLVER WITH   2 PROCESSORS

     CHECK POINT   START OF SOLVER    

     CHECK POINT  END OF SOLVER       

       ELAPSED USER TIME (SEC)      =  0.10000    
       ELAPSED SYSTEM TIME (SEC)    =  0.10000    
       ELAPSED TOTAL CPU TIME (SEC) =  0.20000    
       ELAPSED WALLCLOCK TIME (SEC) =          0

               CONVERGENCE CHECKS FOR EQUILIBRIUM ITERATION     1

   MAX. PENETRATION ERROR 6.93889E-18 AT NODE 79 OF CONTACT PAIR 
   (PIPELINE,SEABED)
          THE CONTACT CONSTRAINTS HAVE CONVERGED.

 AVERAGE FORCE                      1.493E+05   TIME AVG. FORCE       1.002E+05
 LARGEST RESIDUAL FORCE            -3.582E-04   AT NODE        138   DOF  1
 LARGEST INCREMENT OF DISP.        -2.027E-02   AT NODE        101   DOF  2
 LARGEST CORRECTION TO DISP.        3.224E-05   AT NODE         67   DOF  2
          THE FORCE     EQUILIBRIUM RESPONSE WAS LINEAR IN THIS INCREMENT

 AVERAGE MOMENT                     8.522E+04   TIME AVG. MOMENT      8.413E+04
 LARGEST RESIDUAL MOMENT            1.862E-04   AT NODE         64   DOF  6
 LARGEST INCREMENT OF ROTATION      1.224E-03   AT NODE        115   DOF  6
 LARGEST CORRECTION TO ROTATION     3.961E-06   AT NODE         62   DOF  6
          THE MOMENT    EQUILIBRIUM RESPONSE WAS LINEAR IN THIS INCREMENT

 COMPATIBILITY ERRORS:
    TYPE                NUMBER EXCEEDING TOLERANCE  MAXIMUM ERROR        IN ELEMENT
 BEAM AXIAL                          0                8.651E-12                126
 BEAM SHEAR                          0               -8.646E-13                121
          TIME INCREMENT MAY NOW INCREASE TO    0.225    

 ITERATION SUMMARY FOR THE INCREMENT:   2 TOTAL ITERATIONS, OF WHICH
   1 ARE SEVERE DISCONTINUITY ITERATIONS AND  1 ARE EQUILIBRIUM ITERATIONS.

 TIME INCREMENT COMPLETED  0.150    ,  FRACTION OF STEP COMPLETED  0.350    
 STEP TIME COMPLETED       0.350    ,  TOTAL TIME COMPLETED         1.35    
  
     ASYNCHRONOUS OUTPUT DATABASE FRAME FLUSH STARTED
  


  INCREMENT     4 STARTS. ATTEMPT NUMBER  1, TIME INCREMENT  0.225    

                    2 SEVERE DISCONTINUITIES OCCURRED DURING INCREMENT ATTEMPT INITIALIZATION.
                    2 POINTS CHANGED TO SLIPPING WITH NEGATIVE CPRESS

  NUMBER OF EQUATIONS =     1006     NUMBER OF FLOATING PT. OPERATIONS =  3.38E+05

  USING THE DIRECT SOLVER WITH   2 PROCESSORS

     CHECK POINT   START OF SOLVER    

     CHECK POINT  END OF SOLVER       

       ELAPSED USER TIME (SEC)      =   0.0000    
       ELAPSED SYSTEM TIME (SEC)    =   0.0000    
       ELAPSED TOTAL CPU TIME (SEC) =   0.0000    
       ELAPSED WALLCLOCK TIME (SEC) =          1

                    2 SEVERE DISCONTINUITIES OCCURRED DURING THIS ITERATION.
                    2 POINTS CHANGED FROM CLOSED TO OPEN

               CONVERGENCE CHECKS FOR SEVERE DISCONTINUITY ITERATION     1

   MAX. PENETRATION ERROR -13.8778E-18  AT NODE 79 OF CONTACT PAIR 
   (PIPELINE,SEABED)
   MAX. CONTACT FORCE ERROR -28.7305      AT NODE 74 OF CONTACT PAIR 
   (PIPELINE,SEABED)
          THE CONTACT CONSTRAINT ERRORS ARE WITHIN THE TOLERANCES.

 AVERAGE FORCE                      2.307E+05   TIME AVG. FORCE       1.328E+05
 LARGEST RESIDUAL FORCE              28.7       AT NODE         74   DOF  2
 LARGEST INCREMENT OF DISP.        -3.181E-02   AT NODE        101   DOF  2
 LARGEST CORRECTION TO DISP.       -1.407E-03   AT NODE        101   DOF  2
          DISP.    CORRECTION TOO LARGE COMPARED TO DISP.    INCREMENT

 AVERAGE MOMENT                     8.714E+04   TIME AVG. MOMENT      8.488E+04
 LARGEST RESIDUAL MOMENT           -7.517E-02   AT NODE        116   DOF  6
 LARGEST INCREMENT OF ROTATION     -1.919E-03   AT NODE         87   DOF  6
 LARGEST CORRECTION TO ROTATION    -8.341E-05   AT NODE         88   DOF  6
          ROTATION CORRECTION TOO LARGE COMPARED TO ROTATION INCREMENT

 COMPATIBILITY ERRORS:
    TYPE                NUMBER EXCEEDING TOLERANCE  MAXIMUM ERROR        IN ELEMENT
 BEAM AXIAL                          0                3.503E-09                114
 BEAM SHEAR                          0                4.648E-10                115

  NUMBER OF EQUATIONS =     1006     NUMBER OF FLOATING PT. OPERATIONS =  3.37E+05

  USING THE DIRECT SOLVER WITH   2 PROCESSORS

     CHECK POINT   START OF SOLVER    

     CHECK POINT  END OF SOLVER       

       ELAPSED USER TIME (SEC)      =   0.0000    
       ELAPSED SYSTEM TIME (SEC)    =   0.0000    
       ELAPSED TOTAL CPU TIME (SEC) =   0.0000    
       ELAPSED WALLCLOCK TIME (SEC) =          0

               CONVERGENCE CHECKS FOR EQUILIBRIUM ITERATION     1

   MAX. PENETRATION ERROR 13.8778E-18  AT NODE 79 OF CONTACT PAIR 
   (PIPELINE,SEABED)
          THE CONTACT CONSTRAINTS HAVE CONVERGED.

 AVERAGE FORCE                      2.307E+05   TIME AVG. FORCE       1.328E+05
 LARGEST RESIDUAL FORCE             1.960E-03   AT NODE        128   DOF  1
 LARGEST INCREMENT OF DISP.        -3.182E-02   AT NODE        101   DOF  2
 LARGEST CORRECTION TO DISP.        3.348E-05   AT NODE         72   DOF  2
          THE FORCE     EQUILIBRIUM EQUATIONS HAVE CONVERGED

 AVERAGE MOMENT                     8.712E+04   TIME AVG. MOMENT      8.488E+04
 LARGEST RESIDUAL MOMENT           -2.451E-04   AT NODE        128   DOF  6
 LARGEST INCREMENT OF ROTATION     -1.920E-03   AT NODE         87   DOF  6
 LARGEST CORRECTION TO ROTATION    -4.062E-06   AT NODE         77   DOF  6
          THE MOMENT    EQUILIBRIUM RESPONSE WAS LINEAR IN THIS INCREMENT

 COMPATIBILITY ERRORS:
    TYPE                NUMBER EXCEEDING TOLERANCE  MAXIMUM ERROR        IN ELEMENT
 BEAM AXIAL                          0                1.251E-11                123
 BEAM SHEAR                          0                1.422E-12                127
          TIME INCREMENT MAY NOW INCREASE TO    0.338    

 ITERATION SUMMARY FOR THE INCREMENT:   2 TOTAL ITERATIONS, OF WHICH
   1 ARE SEVERE DISCONTINUITY ITERATIONS AND  1 ARE EQUILIBRIUM ITERATIONS.

 TIME INCREMENT COMPLETED  0.225    ,  FRACTION OF STEP COMPLETED  0.575    
 STEP TIME COMPLETED       0.575    ,  TOTAL TIME COMPLETED         1.58    
  
     ASYNCHRONOUS OUTPUT DATABASE FRAME FLUSH STARTED
  


  INCREMENT     5 STARTS. ATTEMPT NUMBER  1, TIME INCREMENT  0.338    

                   14 SEVERE DISCONTINUITIES OCCURRED DURING INCREMENT ATTEMPT INITIALIZATION.
                   12 POINTS CHANGED FROM STICKING TO SLIPPING
                    2 POINTS CHANGED TO SLIPPING WITH NEGATIVE CPRESS

  NUMBER OF EQUATIONS =     1006     NUMBER OF FLOATING PT. OPERATIONS =  3.37E+05

  USING THE DIRECT SOLVER WITH   2 PROCESSORS

     CHECK POINT   START OF SOLVER    

     CHECK POINT  END OF SOLVER       

       ELAPSED USER TIME (SEC)      =  0.10000    
       ELAPSED SYSTEM TIME (SEC)    =   0.0000    
       ELAPSED TOTAL CPU TIME (SEC) =  0.10000    
       ELAPSED WALLCLOCK TIME (SEC) =          0
 

 ***WARNING: THE SYSTEM MATRIX HAS 16 NEGATIVE EIGENVALUES.

     NEGATIVE EIGENVALUES MEAN THAT THE SYSTEM MATRIX IS NOT 
     POSITIVE DEFINITE:
     FOR EXAMPLE, A BIFURCATION (BUCKLING) LOAD MAY HAVE BEEN EXCEEDED.

                    4 SEVERE DISCONTINUITIES OCCURRED DURING THIS ITERATION.
                    2 POINTS CHANGED FROM CLOSED TO OPEN
                    2 POINTS CHANGED FROM STICKING TO SLIPPING

               CONVERGENCE CHECKS FOR SEVERE DISCONTINUITY ITERATION     1

   MAX. PENETRATION ERROR 6.93889E-18 AT NODE 79 OF CONTACT PAIR 
   (PIPELINE,SEABED)
   MAX. CONTACT FORCE ERROR -273.772       AT NODE 64 OF CONTACT PAIR 
   (PIPELINE,SEABED)
          THE CONTACT CONSTRAINT ERRORS ARE WITHIN THE TOLERANCES.

 AVERAGE FORCE                      3.542E+05   TIME AVG. FORCE       1.771E+05
 LARGEST RESIDUAL FORCE              274.       AT NODE         64   DOF  2
 LARGEST INCREMENT OF DISP.        -5.204E-02   AT NODE        101   DOF  2
 LARGEST CORRECTION TO DISP.       -4.314E-03   AT NODE        101   DOF  2
          DISP.    CORRECTION TOO LARGE COMPARED TO DISP.    INCREMENT

 AVERAGE MOMENT                     8.932E+04   TIME AVG. MOMENT      8.577E+04
 LARGEST RESIDUAL MOMENT           -0.224       AT NODE        116   DOF  6
 LARGEST INCREMENT OF ROTATION     -3.149E-03   AT NODE         87   DOF  6
 LARGEST CORRECTION TO ROTATION    -2.692E-04   AT NODE         87   DOF  6
          ROTATION CORRECTION TOO LARGE COMPARED TO ROTATION INCREMENT

 COMPATIBILITY ERRORS:
    TYPE                NUMBER EXCEEDING TOLERANCE  MAXIMUM ERROR        IN ELEMENT
 BEAM AXIAL                          0                3.618E-08                 87
 BEAM SHEAR                          0                2.375E-09                115

  NUMBER OF EQUATIONS =     1006     NUMBER OF FLOATING PT. OPERATIONS =  3.37E+05

  USING THE DIRECT SOLVER WITH   2 PROCESSORS

     CHECK POINT   START OF SOLVER    

     CHECK POINT  END OF SOLVER       

       ELAPSED USER TIME (SEC)      =   0.0000    
       ELAPSED SYSTEM TIME (SEC)    =   0.0000    
       ELAPSED TOTAL CPU TIME (SEC) =   0.0000    
       ELAPSED WALLCLOCK TIME (SEC) =          0
 

 ***WARNING: THE SYSTEM MATRIX HAS 18 NEGATIVE EIGENVALUES.
             EXPLANATIONS ARE SUGGESTED AFTER THE FIRST OCCURRENCE OF THIS MESSAGE.

               CONVERGENCE CHECKS FOR EQUILIBRIUM ITERATION     1

   MAX. PENETRATION ERROR -6.93889E-18 AT NODE 78 OF CONTACT PAIR 
   (PIPELINE,SEABED)
          THE CONTACT CONSTRAINTS HAVE CONVERGED.

 AVERAGE FORCE                      3.531E+05   TIME AVG. FORCE       1.769E+05
 LARGEST RESIDUAL FORCE            -2.562E-02   AT NODE        140   DOF  1
 LARGEST INCREMENT OF DISP.        -5.219E-02   AT NODE        101   DOF  2
 LARGEST CORRECTION TO DISP.        3.470E-04   AT NODE        136   DOF  2
          THE FORCE     EQUILIBRIUM EQUATIONS HAVE CONVERGED

 AVERAGE MOMENT                     8.919E+04   TIME AVG. MOMENT      8.574E+04
 LARGEST RESIDUAL MOMENT           -1.762E-03   AT NODE        129   DOF  6
 LARGEST INCREMENT OF ROTATION      3.157E-03   AT NODE        115   DOF  6
 LARGEST CORRECTION TO ROTATION    -4.210E-05   AT NODE        141   DOF  6
 ESTIMATE OF ROTATION CORRECTION   -3.317E-07
 MOMENT    EQUILIB. ACCEPTED BASED ON SMALL RESIDUAL AND ESTIMATED CORRECTION

 COMPATIBILITY ERRORS:
    TYPE                NUMBER EXCEEDING TOLERANCE  MAXIMUM ERROR        IN ELEMENT
 BEAM AXIAL                          0                8.994E-10                 61
 BEAM SHEAR                          0               -6.628E-12                121

 ITERATION SUMMARY FOR THE INCREMENT:   2 TOTAL ITERATIONS, OF WHICH
   1 ARE SEVERE DISCONTINUITY ITERATIONS AND  1 ARE EQUILIBRIUM ITERATIONS.

 TIME INCREMENT COMPLETED  0.338    ,  FRACTION OF STEP COMPLETED  0.913    
 STEP TIME COMPLETED       0.913    ,  TOTAL TIME COMPLETED         1.91    
  
     ASYNCHRONOUS OUTPUT DATABASE FRAME FLUSH STARTED
  


  INCREMENT     6 STARTS. ATTEMPT NUMBER  1, TIME INCREMENT  8.750E-02

                    4 SEVERE DISCONTINUITIES OCCURRED DURING INCREMENT ATTEMPT INITIALIZATION.
                    4 POINTS CHANGED FROM STICKING TO SLIPPING

  NUMBER OF EQUATIONS =     1006     NUMBER OF FLOATING PT. OPERATIONS =  3.37E+05

  USING THE DIRECT SOLVER WITH   2 PROCESSORS

     CHECK POINT   START OF SOLVER    

     CHECK POINT  END OF SOLVER       

       ELAPSED USER TIME (SEC)      =   0.0000    
       ELAPSED SYSTEM TIME (SEC)    =   0.0000    
       ELAPSED TOTAL CPU TIME (SEC) =   0.0000    
       ELAPSED WALLCLOCK TIME (SEC) =          0
 

 ***WARNING: THE SYSTEM MATRIX HAS 56 NEGATIVE EIGENVALUES.
             EXPLANATIONS ARE SUGGESTED AFTER THE FIRST OCCURRENCE OF THIS MESSAGE.

                    4 SEVERE DISCONTINUITIES OCCURRED DURING THIS ITERATION.
                    2 POINTS CHANGED FROM CLOSED TO OPEN
                    2 POINTS CHANGED FROM STICKING TO SLIPPING

               CONVERGENCE CHECKS FOR SEVERE DISCONTINUITY ITERATION     1

   MAX. PENETRATION ERROR 13.8778E-18  AT NODE 122 OF CONTACT PAIR 
   (PIPELINE,SEABED)
   MAX. CONTACT FORCE ERROR -64.1853      AT NODE 139 OF CONTACT PAIR 
   (PIPELINE,SEABED)
          THE CONTACT CONSTRAINT ERRORS ARE WITHIN THE TOLERANCES.

 AVERAGE FORCE                      3.889E+05   TIME AVG. FORCE       2.122E+05
 LARGEST RESIDUAL FORCE              64.2       AT NODE         63   DOF  2
 LARGEST INCREMENT OF DISP.        -1.409E-02   AT NODE        101   DOF  2
 LARGEST CORRECTION TO DISP.       -5.611E-04   AT NODE        101   DOF  2
          DISP.    CORRECTION TOO LARGE COMPARED TO DISP.    INCREMENT

 AVERAGE MOMENT                     9.034E+04   TIME AVG. MOMENT      8.651E+04
 LARGEST RESIDUAL MOMENT           -5.405E-02   AT NODE        116   DOF  6
 LARGEST INCREMENT OF ROTATION     -8.521E-04   AT NODE         87   DOF  6
 LARGEST CORRECTION TO ROTATION    -3.389E-05   AT NODE         88   DOF  6
          ROTATION CORRECTION TOO LARGE COMPARED TO ROTATION INCREMENT

 COMPATIBILITY ERRORS:
    TYPE                NUMBER EXCEEDING TOLERANCE  MAXIMUM ERROR        IN ELEMENT
 BEAM AXIAL                          0                5.654E-10                114
 BEAM SHEAR                          0               -2.687E-10                 85

  NUMBER OF EQUATIONS =     1006     NUMBER OF FLOATING PT. OPERATIONS =  3.36E+05

  USING THE DIRECT SOLVER WITH   2 PROCESSORS

     CHECK POINT   START OF SOLVER    

     CHECK POINT  END OF SOLVER       

       ELAPSED USER TIME (SEC)      =  0.10000    
       ELAPSED SYSTEM TIME (SEC)    =   0.0000    
       ELAPSED TOTAL CPU TIME (SEC) =  0.10000    
       ELAPSED WALLCLOCK TIME (SEC) =          0
 

 ***WARNING: THE SYSTEM MATRIX HAS 57 NEGATIVE EIGENVALUES.
             EXPLANATIONS ARE SUGGESTED AFTER THE FIRST OCCURRENCE OF THIS MESSAGE.

               CONVERGENCE CHECKS FOR EQUILIBRIUM ITERATION     1

   MAX. PENETRATION ERROR -13.8778E-18  AT NODE 122 OF CONTACT PAIR 
   (PIPELINE,SEABED)
          THE CONTACT CONSTRAINTS HAVE CONVERGED.

 AVERAGE FORCE                      3.889E+05   TIME AVG. FORCE       2.122E+05
 LARGEST RESIDUAL FORCE            -8.937E-04   AT NODE        143   DOF  1
 LARGEST INCREMENT OF DISP.        -1.413E-02   AT NODE        101   DOF  2
 LARGEST CORRECTION TO DISP.        8.690E-05   AT NODE         66   DOF  2
          THE FORCE     EQUILIBRIUM RESPONSE WAS LINEAR IN THIS INCREMENT

 AVERAGE MOMENT                     9.031E+04   TIME AVG. MOMENT      8.650E+04
 LARGEST RESIDUAL MOMENT            5.433E-04   AT NODE        121   DOF  6
 LARGEST INCREMENT OF ROTATION     -8.543E-04   AT NODE         87   DOF  6
 LARGEST CORRECTION TO ROTATION     1.044E-05   AT NODE         60   DOF  6
          THE MOMENT    EQUILIBRIUM RESPONSE WAS LINEAR IN THIS INCREMENT

 COMPATIBILITY ERRORS:
    TYPE                NUMBER EXCEEDING TOLERANCE  MAXIMUM ERROR        IN ELEMENT
 BEAM AXIAL                          0                5.601E-11                 60
 BEAM SHEAR                          0                2.871E-12                 80

 ITERATION SUMMARY FOR THE INCREMENT:   2 TOTAL ITERATIONS, OF WHICH
   1 ARE SEVERE DISCONTINUITY ITERATIONS AND  1 ARE EQUILIBRIUM ITERATIONS.

 TIME INCREMENT COMPLETED  8.750E-02,  FRACTION OF STEP COMPLETED   1.00    
 STEP TIME COMPLETED        1.00    ,  TOTAL TIME COMPLETED         2.00    


          THE ANALYSIS HAS BEEN COMPLETED



     ANALYSIS SUMMARY:
     TOTAL OF         12  INCREMENTS
                       0  CUTBACKS IN AUTOMATIC INCREMENTATION
                      26  ITERATIONS INCLUDING CONTACT ITERATIONS IF PRESENT
                      26  PASSES THROUGH THE EQUATION SOLVER OF WHICH 
                      26  INVOLVE MATRIX DECOMPOSITION, INCLUDING
                       0  DECOMPOSITION(S) OF THE MASS MATRIX
                       1  REORDERING OF EQUATIONS TO MINIMIZE WAVEFRONT
                       0  ADDITIONAL RESIDUAL EVALUATIONS FOR LINE SEARCHES
                       0  ADDITIONAL OPERATOR EVALUATIONS FOR LINE SEARCHES
                       1  WARNING MESSAGES DURING USER INPUT PROCESSING
                       4  WARNING MESSAGES DURING ANALYSIS
                       0  ANALYSIS WARNINGS ARE NUMERICAL PROBLEM MESSAGES
                       4  ANALYSIS WARNINGS ARE NEGATIVE EIGENVALUE MESSAGES
                       0  ERROR MESSAGES



     JOB TIME SUMMARY
       USER TIME (SEC)      =   3.3000    
       SYSTEM TIME (SEC)    =   1.3000    
       TOTAL CPU TIME (SEC) =   4.6000    
       WALLCLOCK TIME (SEC) =          4
