*NODE, NSET=PIPELINE
1, 0, 0
401, 400, 0
*NGEN, NSET=PIPELINE
1, 401, 1
*ELEMENT, TYPE=PIPE21H, ELSET=PIPELINE
1, 1, 2
*ELGEN, ELSET=PIPELINE
1, 400
*BEAM SECTION, ELSET=PIPELINE, SECTION=THICK PIPE, MATERIAL=STEEL
0.1683, 0.0127
*MATERIAL, NAME=STEEL
*ELASTIC, TYPE=ISOTROPIC
2.070e+11, 0.3
*EXPANSION, TYPE=ISO
1.170e-05
*DENSITY
9.142e+03
*BOUNDARY, TYPE=DISPLACEMENT
1, 1, 1, 0
1, 6, 6, 0
401, 1, 1, 0
401, 6, 6, 0
*SURFACE, NAME=PIPELINE, TYPE=ELEMENT
PIPELINE
*NODE, NSET=SEABED_REF
402, -10, 0
*SURFACE, TYPE=SEGMENTS, NAME=SEABED
START, -10, 0
LINE, 180.0, 0
LINE, 180.0, -1
LINE, 220.0, -1
LINE, 220.0, 0
LINE, 410, 0
*SURFACE INTERACTION, NAME=SEABED
*SURFACE BEHAVIOR, PRESSURE-OVERCLOSURE=LINEAR
2.000e+05
*FRICTION
5.000e-01
*RIGID BODY, ANALYTICAL SURFACE=SEABED, REF NODE=SEABED_REF
*CONTACT PAIR, INTERACTION=SEABED, TYPE=NODE TO SURFACE
PIPELINE, SEABED
*STEP, NLGEOM=YES
*STATIC
0.1,1,1E-10,1
*BOUNDARY, OP=NEW, FIXED
1, 1, 1, 0
1, 6, 6, 0
401, 1, 1, 0
401, 6, 6, 0
SEABED_REF, 1, 2, 0
SEABED_REF, 6, 6, 0
*DLOAD, OP=NEW
PIPELINE, GRAV, 9.80665, 0, -1
*OUTPUT, FIELD, VARIABLE=PRESELECT
*ELEMENT OUTPUT, ELSET=PIPELINE, VARIABLE=PRESELECT
ESF1, SF, SE, S
*NODE OUTPUT, NSET=PIPELINE, VARIABLE=PRESELECT
*END STEP
*STEP, NLGEOM=YES
*STATIC
0.1, 1, 1E-10, 1
*DLOAD, OP=MOD
PIPELINE, PI, 1.000e+07, 1.429e-01
*TEMPERATURE
PIPELINE, 1.000e+01
*OUTPUT, FIELD, VARIABLE=PRESELECT
*ELEMENT OUTPUT, ELSET=PIPELINE, VARIABLE=PRESELECT
ESF1, SF, SE, S
*NODE OUTPUT, NSET=PIPELINE, VARIABLE=PRESELECT
*END STEP
