1

   Abaqus 6.14-2                                  Date 05-Aug-2023   Time 11:11:28
   For use by T_EN NET SAS under license from Dassault Systemes or its subsidiary.

                                                                                 
                                                                                 
 STEP    1     INCREMENT     1     STEP TIME    0.00    


                        S T E P       1     S T A T I C   A N A L Y S I S


                                                                                          

     AUTOMATIC TIME CONTROL WITH -
          A SUGGESTED INITIAL TIME INCREMENT OF                0.100    
          AND A TOTAL TIME PERIOD OF                            1.00    
          THE MINIMUM TIME INCREMENT ALLOWED IS                1.000E-10
          THE MAXIMUM TIME INCREMENT ALLOWED IS                 1.00    

     LINEAR EQUATION SOLVER TYPE         DIRECT SPARSE

 CONVERGENCE TOLERANCE PARAMETERS FOR FORCE    
     CRITERION FOR RESIDUAL FORCE     FOR A NONLINEAR PROBLEM          5.000E-03
     CRITERION FOR DISP.    CORRECTION IN A NONLINEAR PROBLEM          1.000E-02
     INITIAL VALUE OF TIME AVERAGE FORCE                               1.000E-02
     AVERAGE FORCE     IS TIME AVERAGE FORCE    
     ALTERNATE CRIT. FOR RESIDUAL FORCE     FOR A NONLINEAR PROBLEM    2.000E-02
     CRITERION FOR ZERO FORCE     RELATIVE TO TIME AVRG. FORCE         1.000E-05
     CRITERION FOR RESIDUAL FORCE     WHEN THERE IS ZERO FLUX          1.000E-05
     CRITERION FOR DISP.    CORRECTION WHEN THERE IS ZERO FLUX         1.000E-03
     CRITERION FOR RESIDUAL FORCE     FOR A LINEAR INCREMENT           1.000E-08
     FIELD CONVERSION RATIO                                             1.00    
     CRITERION FOR ZERO FORCE     REL. TO TIME AVRG. MAX. FORCE        1.000E-05
     CRITERION FOR ZERO DISP.    RELATIVE TO CHARACTERISTIC LENGTH     1.000E-08

 CONVERGENCE TOLERANCE PARAMETERS FOR MOMENT   
     CRITERION FOR RESIDUAL MOMENT    FOR A NONLINEAR PROBLEM          5.000E-03
     CRITERION FOR ROTATION CORRECTION IN A NONLINEAR PROBLEM          1.000E-02
     INITIAL VALUE OF TIME AVERAGE MOMENT                              1.000E-02
     AVERAGE MOMENT    IS TIME AVERAGE MOMENT   
     ALTERNATE CRIT. FOR RESIDUAL MOMENT    FOR A NONLINEAR PROBLEM    2.000E-02
     CRITERION FOR ZERO MOMENT    RELATIVE TO TIME AVRG. MOMENT        1.000E-05
     CRITERION FOR RESIDUAL MOMENT    WHEN THERE IS ZERO FLUX          1.000E-05
     CRITERION FOR ROTATION CORRECTION WHEN THERE IS ZERO FLUX         1.000E-03
     CRITERION FOR RESIDUAL MOMENT    FOR A LINEAR INCREMENT           1.000E-08
     FIELD CONVERSION RATIO                                             1.00    
     CRITERION FOR ZERO MOMENT    REL. TO TIME AVRG. MAX. MOMENT       1.000E-05

     VOLUMETRIC STRAIN COMPATIBILITY TOLERANCE FOR HYBRID SOLIDS       1.000E-05
     AXIAL STRAIN COMPATIBILITY TOLERANCE FOR HYBRID BEAMS             1.000E-05
     TRANS. SHEAR STRAIN COMPATIBILITY TOLERANCE FOR HYBRID BEAMS      1.000E-05
     SOFT CONTACT CONSTRAINT COMPATIBILITY TOLERANCE FOR P>P0          5.000E-03
     SOFT CONTACT CONSTRAINT COMPATIBILITY TOLERANCE FOR P=0.0         0.100    
     CONTACT FORCE ERROR TOLERANCE FOR CONVERT SDI=YES                 1.00    
     DISPLACEMENT COMPATIBILITY TOLERANCE FOR DCOUP ELEMENTS           1.000E-05
     ROTATION COMPATIBILITY TOLERANCE FOR DCOUP ELEMENTS               1.000E-05

 EQUILIBRIUM WILL BE CHECKED FOR SEVERE DISCONTINUITY ITERATIONS

 TIME INCREMENTATION CONTROL PARAMETERS:
     FIRST EQUILIBRIUM ITERATION FOR CONSECUTIVE DIVERGENCE CHECK              4
     EQUILIBRIUM ITERATION AT WHICH LOG. CONVERGENCE RATE CHECK BEGINS         8
     EQUILIBRIUM ITERATION AFTER WHICH ALTERNATE RESIDUAL IS USED              9
     MAXIMUM EQUILIBRIUM ITERATIONS ALLOWED                                   16
     EQUILIBRIUM ITERATION COUNT FOR CUT-BACK IN NEXT INCREMENT               10
     MAXIMUM EQUILIB. ITERS IN TWO INCREMENTS FOR TIME INCREMENT INCREASE      4
     MAXIMUM ITERATIONS FOR SEVERE DISCONTINUITIES                            50
     MAXIMUM CUT-BACKS ALLOWED IN AN INCREMENT                                 5
     MAXIMUM DISCON. ITERS IN TWO INCREMENTS FOR TIME INCREMENT INCREASE      50
     MAXIMUM CONTACT AUGMENTATIONS FOR *SURFACE BEHAVIOR,AUGMENTED LAGRANGE   50
     CUT-BACK FACTOR AFTER DIVERGENCE                                 0.2500    
     CUT-BACK FACTOR FOR TOO SLOW CONVERGENCE                         0.5000    
     CUT-BACK FACTOR AFTER TOO MANY EQUILIBRIUM ITERATIONS            0.7500    
     CUT-BACK FACTOR AFTER TOO MANY SEVERE DISCONTINUITY ITERATIONS   0.2500    
     CUT-BACK FACTOR AFTER PROBLEMS IN ELEMENT ASSEMBLY               0.2500    
     INCREASE FACTOR AFTER TWO INCREMENTS THAT CONVERGE QUICKLY        1.500    
     MAX. TIME INCREMENT INCREASE FACTOR ALLOWED                       1.500    
     MAX. TIME INCREMENT INCREASE FACTOR ALLOWED (DYNAMICS)            1.250    
     MAX. TIME INCREMENT INCREASE FACTOR ALLOWED (DIFFUSION)           2.000    
     MINIMUM TIME INCREMENT RATIO FOR EXTRAPOLATION TO OCCUR          0.1000    
     MAX. RATIO OF TIME INCREMENT TO STABILITY LIMIT                   1.000    
     FRACTION OF STABILITY LIMIT FOR NEW TIME INCREMENT               0.9500    
     TIME INCREMENT INCREASE FACTOR BEFORE A TIME POINT                1.000    
     GLOBAL STABILIZATION CONTROL IS NOT USED

          PRINT OF INCREMENT NUMBER, TIME, ETC., EVERY    1  INCREMENTS

     THE MAXIMUM NUMBER OF INCREMENTS IN THIS STEP IS                     100

          LARGE DISPLACEMENT THEORY WILL BE USED

          UNSYMMETRIC MATRIX STORAGE AND SOLUTION WILL BE USED

     LINEAR EXTRAPOLATION WILL BE USED

     CHARACTERISTIC ELEMENT LENGTH      1.00    

     DETAILS REGARDING ACTUAL SOLUTION WAVEFRONT REQUESTED

     DETAILED OUTPUT OF DIAGNOSTICS TO DATABASE REQUESTED

     PRINT OF INCREMENT NUMBER, TIME, ETC., TO THE MESSAGE FILE EVERY     1  INCREMENTS

     ELEMENT OPERATIONS WILL BE CARRIED OUT IN PARALLEL USING   2 PROCESSORS

     PARALLEL CONTACT TRACKING ENABLED


     COLLECTING MODEL CONSTRAINT INFORMATION FOR OVERCONSTRAINT CHECKS

     COLLECTING STEP CONSTRAINT INFORMATION FOR OVERCONSTRAINT CHECKS
  
     ASYNCHRONOUS OUTPUT DATABASE FRAME FLUSH STARTED
  


  INCREMENT     1 STARTS. ATTEMPT NUMBER  1, TIME INCREMENT  0.100    
 
     INITIAL ELEMENT LOAD BALANCE
        COMPUTE NODE   1   PROCESS    NUMBER OF ELEMENTS
                              1            401
                              2            401

  NUMBER OF EQUATIONS =     2006     NUMBER OF FLOATING PT. OPERATIONS =  9.81E+05

  USING THE DIRECT SOLVER WITH   2 PROCESSORS

     CHECK POINT   START OF SOLVER    

     CHECK POINT  END OF SOLVER       

       ELAPSED USER TIME (SEC)      =  0.10000    
       ELAPSED SYSTEM TIME (SEC)    =   0.0000    
       ELAPSED TOTAL CPU TIME (SEC) =  0.10000    
       ELAPSED WALLCLOCK TIME (SEC) =          0

                   16 SEVERE DISCONTINUITIES OCCURRED DURING THIS ITERATION.
                   14 POINTS CHANGED FROM CLOSED TO OPEN
                    2 POINTS CHANGED FROM STICKING TO SLIPPING

               CONVERGENCE CHECKS FOR SEVERE DISCONTINUITY ITERATION     1

   MAX. PENETRATION ERROR -7.79373E-03 AT NODE 181 OF CONTACT PAIR 
   (PIPELINE,SEABED)
   MAX. CONTACT FORCE ERROR -75.3314      AT NODE 172 OF CONTACT PAIR 
   (PIPELINE,SEABED)
          PENETRATION ERROR TOO LARGE COMPARED TO DISPLACEMENT INCREMENT.

 AVERAGE FORCE                       34.9       TIME AVG. FORCE        34.9    
 LARGEST RESIDUAL FORCE             1.555E+03   AT NODE        181   DOF  1
 LARGEST INCREMENT OF DISP.        -5.221E-02   AT NODE        201   DOF  2
 LARGEST CORRECTION TO DISP.       -5.221E-02   AT NODE        201   DOF  2
          FORCE     EQUILIBRIUM NOT ACHIEVED WITHIN TOLERANCE.

 AVERAGE MOMENT                     6.540E+03   TIME AVG. MOMENT      6.540E+03
 LARGEST RESIDUAL MOMENT           -2.001E-02   AT NODE        186   DOF  6
 LARGEST INCREMENT OF ROTATION     -3.136E-03   AT NODE        187   DOF  6
 LARGEST CORRECTION TO ROTATION    -3.136E-03   AT NODE        187   DOF  6
          ROTATION CORRECTION TOO LARGE COMPARED TO ROTATION INCREMENT

 COMPATIBILITY ERRORS:
    TYPE                NUMBER EXCEEDING TOLERANCE  MAXIMUM ERROR        IN ELEMENT
 BEAM AXIAL                          0                4.917E-06                186
 BEAM SHEAR                          0               -1.033E-08                215

  NUMBER OF EQUATIONS =     2006     NUMBER OF FLOATING PT. OPERATIONS =  7.20E+05

  USING THE DIRECT SOLVER WITH   2 PROCESSORS

     CHECK POINT   START OF SOLVER    

     CHECK POINT  END OF SOLVER       

       ELAPSED USER TIME (SEC)      =   0.0000    
       ELAPSED SYSTEM TIME (SEC)    =  0.10000    
       ELAPSED TOTAL CPU TIME (SEC) =  0.10000    
       ELAPSED WALLCLOCK TIME (SEC) =          0

                    8 SEVERE DISCONTINUITIES OCCURRED DURING THIS ITERATION.
                    8 POINTS CHANGED FROM CLOSED TO OPEN

               CONVERGENCE CHECKS FOR SEVERE DISCONTINUITY ITERATION     2

   MAX. PENETRATION ERROR -1.73472E-18 AT NODE 180 OF CONTACT PAIR 
   (PIPELINE,SEABED)
   MAX. CONTACT FORCE ERROR -99.4741      AT NODE 167 OF CONTACT PAIR 
   (PIPELINE,SEABED)
          THE CONTACT CONSTRAINT ERRORS ARE WITHIN THE TOLERANCES.

 AVERAGE FORCE                       143.       TIME AVG. FORCE        143.    
 LARGEST RESIDUAL FORCE              99.5       AT NODE        167   DOF  2
 LARGEST INCREMENT OF DISP.        -6.153E-02   AT NODE        201   DOF  2
 LARGEST CORRECTION TO DISP.       -9.325E-03   AT NODE        201   DOF  2
          FORCE     EQUILIBRIUM NOT ACHIEVED WITHIN TOLERANCE.

 AVERAGE MOMENT                     6.792E+03   TIME AVG. MOMENT      6.792E+03
 LARGEST RESIDUAL MOMENT            1.803E-02   AT NODE        186   DOF  6
 LARGEST INCREMENT OF ROTATION     -3.572E-03   AT NODE        186   DOF  6
 LARGEST CORRECTION TO ROTATION     6.150E-04   AT NODE        222   DOF  6
          ROTATION CORRECTION TOO LARGE COMPARED TO ROTATION INCREMENT

 COMPATIBILITY ERRORS:
    TYPE                NUMBER EXCEEDING TOLERANCE  MAXIMUM ERROR        IN ELEMENT
 BEAM AXIAL                          0                1.909E-07                180
 BEAM SHEAR                          0               -2.076E-09                185

  NUMBER OF EQUATIONS =     2006     NUMBER OF FLOATING PT. OPERATIONS =  7.19E+05

  USING THE DIRECT SOLVER WITH   2 PROCESSORS

     CHECK POINT   START OF SOLVER    

     CHECK POINT  END OF SOLVER       

       ELAPSED USER TIME (SEC)      =  0.10000    
       ELAPSED SYSTEM TIME (SEC)    =   0.0000    
       ELAPSED TOTAL CPU TIME (SEC) =  0.10000    
       ELAPSED WALLCLOCK TIME (SEC) =          0

                    2 SEVERE DISCONTINUITIES OCCURRED DURING THIS ITERATION.
                    2 POINTS CHANGED FROM CLOSED TO OPEN

               CONVERGENCE CHECKS FOR SEVERE DISCONTINUITY ITERATION     3

   MAX. PENETRATION ERROR 1.73472E-18 AT NODE 180 OF CONTACT PAIR 
   (PIPELINE,SEABED)
   MAX. CONTACT FORCE ERROR -30.0823      AT NODE 164 OF CONTACT PAIR 
   (PIPELINE,SEABED)
          THE CONTACT CONSTRAINT ERRORS ARE WITHIN THE TOLERANCES.

 AVERAGE FORCE                       147.       TIME AVG. FORCE        147.    
 LARGEST RESIDUAL FORCE              30.1       AT NODE        164   DOF  2
 LARGEST INCREMENT OF DISP.        -6.176E-02   AT NODE        201   DOF  2
 LARGEST CORRECTION TO DISP.        2.644E-04   AT NODE        168   DOF  2
          FORCE     EQUILIBRIUM NOT ACHIEVED WITHIN TOLERANCE.

 AVERAGE MOMENT                     6.755E+03   TIME AVG. MOMENT      6.755E+03
 LARGEST RESIDUAL MOMENT           -1.122E-03   AT NODE        221   DOF  6
 LARGEST INCREMENT OF ROTATION     -3.586E-03   AT NODE        186   DOF  6
 LARGEST CORRECTION TO ROTATION    -3.209E-05   AT NODE        239   DOF  6
          THE MOMENT    EQUILIBRIUM EQUATIONS HAVE CONVERGED

 COMPATIBILITY ERRORS:
    TYPE                NUMBER EXCEEDING TOLERANCE  MAXIMUM ERROR        IN ELEMENT
 BEAM AXIAL                          0                5.148E-10                163
 BEAM SHEAR                          0                7.830E-12                221

  NUMBER OF EQUATIONS =     2006     NUMBER OF FLOATING PT. OPERATIONS =  7.15E+05

  USING THE DIRECT SOLVER WITH   2 PROCESSORS

     CHECK POINT   START OF SOLVER    

     CHECK POINT  END OF SOLVER       

       ELAPSED USER TIME (SEC)      =  0.10000    
       ELAPSED SYSTEM TIME (SEC)    =   0.0000    
       ELAPSED TOTAL CPU TIME (SEC) =  0.10000    
       ELAPSED WALLCLOCK TIME (SEC) =          1

                    2 SEVERE DISCONTINUITIES OCCURRED DURING THIS ITERATION.
                    2 POINTS CHANGED FROM CLOSED TO OPEN

               CONVERGENCE CHECKS FOR SEVERE DISCONTINUITY ITERATION     4

   MAX. PENETRATION ERROR 1.73472E-18 AT NODE 222 OF CONTACT PAIR 
   (PIPELINE,SEABED)
   MAX. CONTACT FORCE ERROR -637.536E-03   AT NODE 239 OF CONTACT PAIR 
   (PIPELINE,SEABED)
          THE CONTACT CONSTRAINT ERRORS ARE WITHIN THE TOLERANCES.

 AVERAGE FORCE                       147.       TIME AVG. FORCE        147.    
 LARGEST RESIDUAL FORCE             0.638       AT NODE        239   DOF  2
 LARGEST INCREMENT OF DISP.        -6.180E-02   AT NODE        201   DOF  2
 LARGEST CORRECTION TO DISP.        3.917E-05   AT NODE        236   DOF  2
          THE FORCE     EQUILIBRIUM EQUATIONS HAVE CONVERGED

 AVERAGE MOMENT                     6.748E+03   TIME AVG. MOMENT      6.748E+03
 LARGEST RESIDUAL MOMENT           -7.072E-05   AT NODE        165   DOF  6
 LARGEST INCREMENT OF ROTATION     -3.589E-03   AT NODE        186   DOF  6
 LARGEST CORRECTION TO ROTATION    -4.738E-06   AT NODE        241   DOF  6
          THE MOMENT    EQUILIBRIUM EQUATIONS HAVE CONVERGED

 COMPATIBILITY ERRORS:
    TYPE                NUMBER EXCEEDING TOLERANCE  MAXIMUM ERROR        IN ELEMENT
 BEAM AXIAL                          0                1.142E-11                161
 BEAM SHEAR                          0               -1.501E-14                221

 ITERATION SUMMARY FOR THE INCREMENT:   4 TOTAL ITERATIONS, OF WHICH
   4 ARE SEVERE DISCONTINUITY ITERATIONS AND  0 ARE EQUILIBRIUM ITERATIONS.

 TIME INCREMENT COMPLETED  0.100    ,  FRACTION OF STEP COMPLETED  0.100    
 STEP TIME COMPLETED       0.100    ,  TOTAL TIME COMPLETED        0.100    
  
     ASYNCHRONOUS OUTPUT DATABASE FRAME FLUSH STARTED
  


  INCREMENT     2 STARTS. ATTEMPT NUMBER  1, TIME INCREMENT  0.100    

  NUMBER OF EQUATIONS =     2006     NUMBER OF FLOATING PT. OPERATIONS =  7.13E+05

  USING THE DIRECT SOLVER WITH   2 PROCESSORS

     CHECK POINT   START OF SOLVER    

     CHECK POINT  END OF SOLVER       

       ELAPSED USER TIME (SEC)      =  0.10000    
       ELAPSED SYSTEM TIME (SEC)    =  0.10000    
       ELAPSED TOTAL CPU TIME (SEC) =  0.20000    
       ELAPSED WALLCLOCK TIME (SEC) =          0

                    2 SEVERE DISCONTINUITIES OCCURRED DURING THIS ITERATION.
                    2 POINTS CHANGED FROM OPEN TO CLOSED

               CONVERGENCE CHECKS FOR SEVERE DISCONTINUITY ITERATION     1

          THE CONTACT CONSTRAINT ERRORS ARE WITHIN THE TOLERANCES.

 AVERAGE FORCE                      1.304E+03   TIME AVG. FORCE        725.    
 LARGEST RESIDUAL FORCE             0.212       AT NODE        180   DOF  1
 LARGEST INCREMENT OF DISP.        -6.085E-02   AT NODE        201   DOF  2
 LARGEST CORRECTION TO DISP.        9.409E-04   AT NODE        201   DOF  2
          DISP.    CORRECTION TOO LARGE COMPARED TO DISP.    INCREMENT

 AVERAGE MOMENT                     3.586E+04   TIME AVG. MOMENT      2.130E+04
 LARGEST RESIDUAL MOMENT            0.102       AT NODE        185   DOF  6
 LARGEST INCREMENT OF ROTATION      3.532E-03   AT NODE        216   DOF  6
 LARGEST CORRECTION TO ROTATION     5.690E-05   AT NODE        187   DOF  6
          ROTATION CORRECTION TOO LARGE COMPARED TO ROTATION INCREMENT

 COMPATIBILITY ERRORS:
    TYPE                NUMBER EXCEEDING TOLERANCE  MAXIMUM ERROR        IN ELEMENT
 BEAM AXIAL                          0                1.613E-09                214
 BEAM SHEAR                          0                2.874E-10                188

  NUMBER OF EQUATIONS =     2006     NUMBER OF FLOATING PT. OPERATIONS =  7.13E+05

  USING THE DIRECT SOLVER WITH   2 PROCESSORS

     CHECK POINT   START OF SOLVER    

     CHECK POINT  END OF SOLVER       

       ELAPSED USER TIME (SEC)      =  0.10000    
       ELAPSED SYSTEM TIME (SEC)    =  0.10000    
       ELAPSED TOTAL CPU TIME (SEC) =  0.20000    
       ELAPSED WALLCLOCK TIME (SEC) =          0

               CONVERGENCE CHECKS FOR EQUILIBRIUM ITERATION     1

   MAX. PENETRATION ERROR -3.46945E-18 AT NODE 180 OF CONTACT PAIR 
   (PIPELINE,SEABED)
          THE CONTACT CONSTRAINTS HAVE CONVERGED.

 AVERAGE FORCE                      1.301E+03   TIME AVG. FORCE        724.    
 LARGEST RESIDUAL FORCE             3.058E-05   AT NODE        239   DOF  1
 LARGEST INCREMENT OF DISP.        -6.086E-02   AT NODE        201   DOF  2
 LARGEST CORRECTION TO DISP.       -9.864E-06   AT NODE        201   DOF  2
          THE FORCE     EQUILIBRIUM EQUATIONS HAVE CONVERGED

 AVERAGE MOMENT                     3.574E+04   TIME AVG. MOMENT      2.124E+04
 LARGEST RESIDUAL MOMENT            3.812E-05   AT NODE        244   DOF  6
 LARGEST INCREMENT OF ROTATION     -3.533E-03   AT NODE        186   DOF  6
 LARGEST CORRECTION TO ROTATION     7.379E-07   AT NODE        161   DOF  6
          THE MOMENT    EQUILIBRIUM RESPONSE WAS LINEAR IN THIS INCREMENT

 COMPATIBILITY ERRORS:
    TYPE                NUMBER EXCEEDING TOLERANCE  MAXIMUM ERROR        IN ELEMENT
 BEAM AXIAL                          0                3.071E-13                161
 BEAM SHEAR                          0               -4.131E-14                185
          TIME INCREMENT MAY NOW INCREASE TO    0.150    

 ITERATION SUMMARY FOR THE INCREMENT:   2 TOTAL ITERATIONS, OF WHICH
   1 ARE SEVERE DISCONTINUITY ITERATIONS AND  1 ARE EQUILIBRIUM ITERATIONS.

 TIME INCREMENT COMPLETED  0.100    ,  FRACTION OF STEP COMPLETED  0.200    
 STEP TIME COMPLETED       0.200    ,  TOTAL TIME COMPLETED        0.200    
   MAX. PENETRATION ERROR 26.8024E-06  AT NODE 163 OF CONTACT PAIR 
   (PIPELINE,SEABED)
  
     ASYNCHRONOUS OUTPUT DATABASE FRAME FLUSH STARTED
  


  INCREMENT     3 STARTS. ATTEMPT NUMBER  1, TIME INCREMENT  0.150    

  NUMBER OF EQUATIONS =     2006     NUMBER OF FLOATING PT. OPERATIONS =  7.15E+05

  USING THE DIRECT SOLVER WITH   2 PROCESSORS

     CHECK POINT   START OF SOLVER    

     CHECK POINT  END OF SOLVER       

       ELAPSED USER TIME (SEC)      =  0.10000    
       ELAPSED SYSTEM TIME (SEC)    =   0.0000    
       ELAPSED TOTAL CPU TIME (SEC) =  0.10000    
       ELAPSED WALLCLOCK TIME (SEC) =          0

               CONVERGENCE CHECKS FOR EQUILIBRIUM ITERATION     1

   MAX. PENETRATION ERROR 3.46945E-18 AT NODE 222 OF CONTACT PAIR 
   (PIPELINE,SEABED)
          THE CONTACT CONSTRAINTS HAVE CONVERGED.

 AVERAGE FORCE                      3.587E+03   TIME AVG. FORCE       1.678E+03
 LARGEST RESIDUAL FORCE              1.35       AT NODE        180   DOF  1
 LARGEST INCREMENT OF DISP.        -8.752E-02   AT NODE        201   DOF  2
 LARGEST CORRECTION TO DISP.        3.778E-03   AT NODE        201   DOF  2
 ESTIMATE OF DISP.    CORRECTION   -3.567E-05
 FORCE     EQUILIB. ACCEPTED BASED ON SMALL RESIDUAL AND ESTIMATED CORRECTION

 AVERAGE MOMENT                     6.241E+04   TIME AVG. MOMENT      3.496E+04
 LARGEST RESIDUAL MOMENT            0.317       AT NODE        185   DOF  6
 LARGEST INCREMENT OF ROTATION      5.073E-03   AT NODE        216   DOF  6
 LARGEST CORRECTION TO ROTATION     2.287E-04   AT NODE        187   DOF  6
          ROTATION CORRECTION TOO LARGE COMPARED TO ROTATION INCREMENT

 COMPATIBILITY ERRORS:
    TYPE                NUMBER EXCEEDING TOLERANCE  MAXIMUM ERROR        IN ELEMENT
 BEAM AXIAL                          0                2.616E-08                214
 BEAM SHEAR                          0                3.618E-09                187

  NUMBER OF EQUATIONS =     2006     NUMBER OF FLOATING PT. OPERATIONS =  7.15E+05

  USING THE DIRECT SOLVER WITH   2 PROCESSORS

     CHECK POINT   START OF SOLVER    

     CHECK POINT  END OF SOLVER       

       ELAPSED USER TIME (SEC)      =  0.10000    
       ELAPSED SYSTEM TIME (SEC)    =   0.0000    
       ELAPSED TOTAL CPU TIME (SEC) =  0.10000    
       ELAPSED WALLCLOCK TIME (SEC) =          0

               CONVERGENCE CHECKS FOR EQUILIBRIUM ITERATION     2

   MAX. PENETRATION ERROR -3.46945E-18 AT NODE 222 OF CONTACT PAIR 
   (PIPELINE,SEABED)
          THE CONTACT CONSTRAINTS HAVE CONVERGED.

 AVERAGE FORCE                      3.589E+03   TIME AVG. FORCE       1.679E+03
 LARGEST RESIDUAL FORCE            -2.310E-05   AT NODE        227   DOF  1
 LARGEST INCREMENT OF DISP.        -8.755E-02   AT NODE        201   DOF  2
 LARGEST CORRECTION TO DISP.       -3.329E-05   AT NODE        201   DOF  2
          THE FORCE     EQUILIBRIUM EQUATIONS HAVE CONVERGED

 AVERAGE MOMENT                     6.241E+04   TIME AVG. MOMENT      3.497E+04
 LARGEST RESIDUAL MOMENT           -3.075E-04   AT NODE        216   DOF  6
 LARGEST INCREMENT OF ROTATION     -5.075E-03   AT NODE        186   DOF  6
 LARGEST CORRECTION TO ROTATION    -1.968E-06   AT NODE        188   DOF  6
          THE MOMENT    EQUILIBRIUM EQUATIONS HAVE CONVERGED

 COMPATIBILITY ERRORS:
    TYPE                NUMBER EXCEEDING TOLERANCE  MAXIMUM ERROR        IN ELEMENT
 BEAM AXIAL                          0               -2.041E-12                 87
 BEAM SHEAR                          0                1.386E-12                216
          TIME INCREMENT MAY NOW INCREASE TO    0.225    

 ITERATION SUMMARY FOR THE INCREMENT:   2 TOTAL ITERATIONS, OF WHICH
   0 ARE SEVERE DISCONTINUITY ITERATIONS AND  2 ARE EQUILIBRIUM ITERATIONS.

 TIME INCREMENT COMPLETED  0.150    ,  FRACTION OF STEP COMPLETED  0.350    
 STEP TIME COMPLETED       0.350    ,  TOTAL TIME COMPLETED        0.350    
  
     ASYNCHRONOUS OUTPUT DATABASE FRAME FLUSH STARTED
  


  INCREMENT     4 STARTS. ATTEMPT NUMBER  1, TIME INCREMENT  0.225    

  NUMBER OF EQUATIONS =     2006     NUMBER OF FLOATING PT. OPERATIONS =  7.14E+05

  USING THE DIRECT SOLVER WITH   2 PROCESSORS

     CHECK POINT   START OF SOLVER    

     CHECK POINT  END OF SOLVER       

       ELAPSED USER TIME (SEC)      =  0.10000    
       ELAPSED SYSTEM TIME (SEC)    =   0.0000    
       ELAPSED TOTAL CPU TIME (SEC) =  0.10000    
       ELAPSED WALLCLOCK TIME (SEC) =          0

               CONVERGENCE CHECKS FOR EQUILIBRIUM ITERATION     1

   MAX. PENETRATION ERROR -6.93889E-18 AT NODE 179 OF CONTACT PAIR 
   (PIPELINE,SEABED)
          THE CONTACT CONSTRAINTS HAVE CONVERGED.

 AVERAGE FORCE                      8.473E+03   TIME AVG. FORCE       3.378E+03
 LARGEST RESIDUAL FORCE             -6.89       AT NODE        222   DOF  1
 LARGEST INCREMENT OF DISP.        -0.118       AT NODE        201   DOF  2
 LARGEST CORRECTION TO DISP.        1.287E-02   AT NODE        201   DOF  2
 ESTIMATE OF DISP.    CORRECTION    1.745E-04
 FORCE     EQUILIB. ACCEPTED BASED ON SMALL RESIDUAL AND ESTIMATED CORRECTION

 AVERAGE MOMENT                     1.020E+05   TIME AVG. MOMENT      5.172E+04
 LARGEST RESIDUAL MOMENT            -1.03       AT NODE        217   DOF  6
 LARGEST INCREMENT OF ROTATION      6.841E-03   AT NODE        216   DOF  6
 LARGEST CORRECTION TO ROTATION     7.797E-04   AT NODE        187   DOF  6
          ROTATION CORRECTION TOO LARGE COMPARED TO ROTATION INCREMENT

 COMPATIBILITY ERRORS:
    TYPE                NUMBER EXCEEDING TOLERANCE  MAXIMUM ERROR        IN ELEMENT
 BEAM AXIAL                          0                3.041E-07                214
 BEAM SHEAR                          0                3.020E-08                186

  NUMBER OF EQUATIONS =     2006     NUMBER OF FLOATING PT. OPERATIONS =  7.14E+05

  USING THE DIRECT SOLVER WITH   2 PROCESSORS

     CHECK POINT   START OF SOLVER    

     CHECK POINT  END OF SOLVER       

       ELAPSED USER TIME (SEC)      =   0.0000    
       ELAPSED SYSTEM TIME (SEC)    =   0.0000    
       ELAPSED TOTAL CPU TIME (SEC) =   0.0000    
       ELAPSED WALLCLOCK TIME (SEC) =          0

               CONVERGENCE CHECKS FOR EQUILIBRIUM ITERATION     2

   MAX. PENETRATION ERROR 13.8778E-18  AT NODE 180 OF CONTACT PAIR 
   (PIPELINE,SEABED)
          THE CONTACT CONSTRAINTS HAVE CONVERGED.

 AVERAGE FORCE                      8.496E+03   TIME AVG. FORCE       3.383E+03
 LARGEST RESIDUAL FORCE             1.093E-03   AT NODE        222   DOF  1
 LARGEST INCREMENT OF DISP.        -0.119       AT NODE        201   DOF  2
 LARGEST CORRECTION TO DISP.       -1.741E-04   AT NODE        201   DOF  2
          THE FORCE     EQUILIBRIUM EQUATIONS HAVE CONVERGED

 AVERAGE MOMENT                     1.020E+05   TIME AVG. MOMENT      5.172E+04
 LARGEST RESIDUAL MOMENT           -5.711E-03   AT NODE        216   DOF  6
 LARGEST INCREMENT OF ROTATION      6.851E-03   AT NODE        216   DOF  6
 LARGEST CORRECTION TO ROTATION    -1.040E-05   AT NODE        188   DOF  6
          THE MOMENT    EQUILIBRIUM EQUATIONS HAVE CONVERGED

 COMPATIBILITY ERRORS:
    TYPE                NUMBER EXCEEDING TOLERANCE  MAXIMUM ERROR        IN ELEMENT
 BEAM AXIAL                          0                5.629E-11                214
 BEAM SHEAR                          0                2.723E-11                216
          TIME INCREMENT MAY NOW INCREASE TO    0.338    

 ITERATION SUMMARY FOR THE INCREMENT:   2 TOTAL ITERATIONS, OF WHICH
   0 ARE SEVERE DISCONTINUITY ITERATIONS AND  2 ARE EQUILIBRIUM ITERATIONS.

 TIME INCREMENT COMPLETED  0.225    ,  FRACTION OF STEP COMPLETED  0.575    
 STEP TIME COMPLETED       0.575    ,  TOTAL TIME COMPLETED        0.575    
  
     ASYNCHRONOUS OUTPUT DATABASE FRAME FLUSH STARTED
  


  INCREMENT     5 STARTS. ATTEMPT NUMBER  1, TIME INCREMENT  0.338    

  NUMBER OF EQUATIONS =     2006     NUMBER OF FLOATING PT. OPERATIONS =  7.15E+05

  USING THE DIRECT SOLVER WITH   2 PROCESSORS

     CHECK POINT   START OF SOLVER    

     CHECK POINT  END OF SOLVER       

       ELAPSED USER TIME (SEC)      =   0.0000    
       ELAPSED SYSTEM TIME (SEC)    =   0.0000    
       ELAPSED TOTAL CPU TIME (SEC) =   0.0000    
       ELAPSED WALLCLOCK TIME (SEC) =          0

                    6 SEVERE DISCONTINUITIES OCCURRED DURING THIS ITERATION.
                    6 POINTS CHANGED FROM OPEN TO CLOSED

               CONVERGENCE CHECKS FOR SEVERE DISCONTINUITY ITERATION     1

   MAX. PENETRATION ERROR 1.86066E-03 AT NODE 228 OF CONTACT PAIR 
   (PIPELINE,SEABED)
          PENETRATION ERROR TOO LARGE COMPARED TO DISPLACEMENT INCREMENT.

 AVERAGE FORCE                      1.724E+04   TIME AVG. FORCE       6.154E+03
 LARGEST RESIDUAL FORCE              12.8       AT NODE        180   DOF  1
 LARGEST INCREMENT OF DISP.        -0.146       AT NODE        201   DOF  2
 LARGEST CORRECTION TO DISP.        3.235E-02   AT NODE        201   DOF  2
          DISP.    CORRECTION TOO LARGE COMPARED TO DISP.    INCREMENT

 AVERAGE MOMENT                     1.625E+05   TIME AVG. MOMENT      7.388E+04
 LARGEST RESIDUAL MOMENT            -2.77       AT NODE        217   DOF  6
 LARGEST INCREMENT OF ROTATION     -8.334E-03   AT NODE        186   DOF  6
 LARGEST CORRECTION TO ROTATION    -1.962E-03   AT NODE        215   DOF  6
          ROTATION CORRECTION TOO LARGE COMPARED TO ROTATION INCREMENT

 COMPATIBILITY ERRORS:
    TYPE                NUMBER EXCEEDING TOLERANCE  MAXIMUM ERROR        IN ELEMENT
 BEAM AXIAL                          0                1.925E-06                187
 BEAM SHEAR                          0                1.469E-07                186

  NUMBER OF EQUATIONS =     2006     NUMBER OF FLOATING PT. OPERATIONS =  7.21E+05

  USING THE DIRECT SOLVER WITH   2 PROCESSORS

     CHECK POINT   START OF SOLVER    

     CHECK POINT  END OF SOLVER       

       ELAPSED USER TIME (SEC)      =  0.10000    
       ELAPSED SYSTEM TIME (SEC)    =   0.0000    
       ELAPSED TOTAL CPU TIME (SEC) =  0.10000    
       ELAPSED WALLCLOCK TIME (SEC) =          0

                    2 SEVERE DISCONTINUITIES OCCURRED DURING THIS ITERATION.
                    2 POINTS CHANGED FROM CLOSED TO OPEN

               CONVERGENCE CHECKS FOR SEVERE DISCONTINUITY ITERATION     2

   MAX. PENETRATION ERROR 13.8778E-18  AT NODE 180 OF CONTACT PAIR 
   (PIPELINE,SEABED)
   MAX. CONTACT FORCE ERROR -2.77582     AT NODE 165 OF CONTACT PAIR 
   (PIPELINE,SEABED)
          THE CONTACT CONSTRAINT ERRORS ARE WITHIN THE TOLERANCES.

 AVERAGE FORCE                      1.727E+04   TIME AVG. FORCE       6.161E+03
 LARGEST RESIDUAL FORCE              2.77       AT NODE        165   DOF  2
 LARGEST INCREMENT OF DISP.        -0.146       AT NODE        201   DOF  2
 LARGEST CORRECTION TO DISP.       -7.171E-04   AT NODE        201   DOF  2
          THE FORCE     EQUILIBRIUM EQUATIONS HAVE CONVERGED

 AVERAGE MOMENT                     1.594E+05   TIME AVG. MOMENT      7.325E+04
 LARGEST RESIDUAL MOMENT           -5.090E-02   AT NODE        216   DOF  6
 LARGEST INCREMENT OF ROTATION      8.384E-03   AT NODE        216   DOF  6
 LARGEST CORRECTION TO ROTATION     7.566E-05   AT NODE        225   DOF  6
          THE MOMENT    EQUILIBRIUM EQUATIONS HAVE CONVERGED

 COMPATIBILITY ERRORS:
    TYPE                NUMBER EXCEEDING TOLERANCE  MAXIMUM ERROR        IN ELEMENT
 BEAM AXIAL                          0                2.863E-09                176
 BEAM SHEAR                          0                2.977E-10                216

 ITERATION SUMMARY FOR THE INCREMENT:   2 TOTAL ITERATIONS, OF WHICH
   2 ARE SEVERE DISCONTINUITY ITERATIONS AND  0 ARE EQUILIBRIUM ITERATIONS.

 TIME INCREMENT COMPLETED  0.338    ,  FRACTION OF STEP COMPLETED  0.913    
 STEP TIME COMPLETED       0.913    ,  TOTAL TIME COMPLETED        0.913    
  
     ASYNCHRONOUS OUTPUT DATABASE FRAME FLUSH STARTED
  


  INCREMENT     6 STARTS. ATTEMPT NUMBER  1, TIME INCREMENT  8.750E-02

  NUMBER OF EQUATIONS =     2006     NUMBER OF FLOATING PT. OPERATIONS =  7.21E+05

  USING THE DIRECT SOLVER WITH   2 PROCESSORS

     CHECK POINT   START OF SOLVER    

     CHECK POINT  END OF SOLVER       

       ELAPSED USER TIME (SEC)      =  0.10000    
       ELAPSED SYSTEM TIME (SEC)    =   0.0000    
       ELAPSED TOTAL CPU TIME (SEC) =  0.10000    
       ELAPSED WALLCLOCK TIME (SEC) =          0

                    2 SEVERE DISCONTINUITIES OCCURRED DURING THIS ITERATION.
                    2 POINTS CHANGED FROM OPEN TO CLOSED

               CONVERGENCE CHECKS FOR SEVERE DISCONTINUITY ITERATION     1

   MAX. PENETRATION ERROR 410.164E-06   AT NODE 165 OF CONTACT PAIR 
   (PIPELINE,SEABED)
          PENETRATION ERROR TOO LARGE COMPARED TO DISPLACEMENT INCREMENT.

 AVERAGE FORCE                      1.969E+04   TIME AVG. FORCE       8.416E+03
 LARGEST RESIDUAL FORCE             0.134       AT NODE        180   DOF  2
 LARGEST INCREMENT OF DISP.        -3.231E-02   AT NODE        201   DOF  2
 LARGEST CORRECTION TO DISP.        5.624E-03   AT NODE        201   DOF  2
          DISP.    CORRECTION TOO LARGE COMPARED TO DISP.    INCREMENT

 AVERAGE MOMENT                     1.754E+05   TIME AVG. MOMENT      9.028E+04
 LARGEST RESIDUAL MOMENT           -0.394       AT NODE        218   DOF  6
 LARGEST INCREMENT OF ROTATION      1.842E-03   AT NODE        217   DOF  6
 LARGEST CORRECTION TO ROTATION     3.404E-04   AT NODE        187   DOF  6
          ROTATION CORRECTION TOO LARGE COMPARED TO ROTATION INCREMENT

 COMPATIBILITY ERRORS:
    TYPE                NUMBER EXCEEDING TOLERANCE  MAXIMUM ERROR        IN ELEMENT
 BEAM AXIAL                          0                5.817E-08                187
 BEAM SHEAR                          0                2.142E-09                187

  NUMBER OF EQUATIONS =     2006     NUMBER OF FLOATING PT. OPERATIONS =  7.21E+05

  USING THE DIRECT SOLVER WITH   2 PROCESSORS

     CHECK POINT   START OF SOLVER    

     CHECK POINT  END OF SOLVER       

       ELAPSED USER TIME (SEC)      =  0.10000    
       ELAPSED SYSTEM TIME (SEC)    =   0.0000    
       ELAPSED TOTAL CPU TIME (SEC) =  0.10000    
       ELAPSED WALLCLOCK TIME (SEC) =          0

               CONVERGENCE CHECKS FOR EQUILIBRIUM ITERATION     1

   MAX. PENETRATION ERROR 13.8778E-18  AT NODE 222 OF CONTACT PAIR 
   (PIPELINE,SEABED)
          THE CONTACT CONSTRAINTS HAVE CONVERGED.

 AVERAGE FORCE                      1.967E+04   TIME AVG. FORCE       8.413E+03
 LARGEST RESIDUAL FORCE             1.374E-02   AT NODE        237   DOF  1
 LARGEST INCREMENT OF DISP.        -3.236E-02   AT NODE        201   DOF  2
 LARGEST CORRECTION TO DISP.        7.489E-05   AT NODE        167   DOF  2
          THE FORCE     EQUILIBRIUM EQUATIONS HAVE CONVERGED

 AVERAGE MOMENT                     1.748E+05   TIME AVG. MOMENT      9.018E+04
 LARGEST RESIDUAL MOMENT           -1.584E-03   AT NODE        216   DOF  6
 LARGEST INCREMENT OF ROTATION     -1.845E-03   AT NODE        185   DOF  6
 LARGEST CORRECTION TO ROTATION     9.185E-06   AT NODE        162   DOF  6
          THE MOMENT    EQUILIBRIUM EQUATIONS HAVE CONVERGED

 COMPATIBILITY ERRORS:
    TYPE                NUMBER EXCEEDING TOLERANCE  MAXIMUM ERROR        IN ELEMENT
 BEAM AXIAL                          0                4.212E-11                162
 BEAM SHEAR                          0               -6.925E-12                185

 ITERATION SUMMARY FOR THE INCREMENT:   2 TOTAL ITERATIONS, OF WHICH
   1 ARE SEVERE DISCONTINUITY ITERATIONS AND  1 ARE EQUILIBRIUM ITERATIONS.

 TIME INCREMENT COMPLETED  8.750E-02,  FRACTION OF STEP COMPLETED   1.00    
 STEP TIME COMPLETED        1.00    ,  TOTAL TIME COMPLETED         1.00    
1

   Abaqus 6.14-2                                  Date 05-Aug-2023   Time 11:11:32
   For use by T_EN NET SAS under license from Dassault Systemes or its subsidiary.

                                                                                 
                                                                                 
 STEP    2     INCREMENT     1     STEP TIME    0.00    


                        S T E P       2     S T A T I C   A N A L Y S I S


                                                                                          

     AUTOMATIC TIME CONTROL WITH -
          A SUGGESTED INITIAL TIME INCREMENT OF                0.100    
          AND A TOTAL TIME PERIOD OF                            1.00    
          THE MINIMUM TIME INCREMENT ALLOWED IS                1.000E-10
          THE MAXIMUM TIME INCREMENT ALLOWED IS                 1.00    

     LINEAR EQUATION SOLVER TYPE         DIRECT SPARSE

 CONVERGENCE TOLERANCE PARAMETERS FOR FORCE    
     CRITERION FOR RESIDUAL FORCE     FOR A NONLINEAR PROBLEM          5.000E-03
     CRITERION FOR DISP.    CORRECTION IN A NONLINEAR PROBLEM          1.000E-02
     INIT. VALUE OF TIME AVG. FORCE     IS TIME AVG. FORCE     IN PREVIOUS STEP
     AVERAGE FORCE     IS TIME AVERAGE FORCE    
     ALTERNATE CRIT. FOR RESIDUAL FORCE     FOR A NONLINEAR PROBLEM    2.000E-02
     CRITERION FOR ZERO FORCE     RELATIVE TO TIME AVRG. FORCE         1.000E-05
     CRITERION FOR RESIDUAL FORCE     WHEN THERE IS ZERO FLUX          1.000E-05
     CRITERION FOR DISP.    CORRECTION WHEN THERE IS ZERO FLUX         1.000E-03
     CRITERION FOR RESIDUAL FORCE     FOR A LINEAR INCREMENT           1.000E-08
     FIELD CONVERSION RATIO                                             1.00    
     CRITERION FOR ZERO FORCE     REL. TO TIME AVRG. MAX. FORCE        1.000E-05
     CRITERION FOR ZERO DISP.    RELATIVE TO CHARACTERISTIC LENGTH     1.000E-08

 CONVERGENCE TOLERANCE PARAMETERS FOR MOMENT   
     CRITERION FOR RESIDUAL MOMENT    FOR A NONLINEAR PROBLEM          5.000E-03
     CRITERION FOR ROTATION CORRECTION IN A NONLINEAR PROBLEM          1.000E-02
     INIT. VALUE OF TIME AVG. MOMENT    IS TIME AVG. MOMENT    IN PREVIOUS STEP
     AVERAGE MOMENT    IS TIME AVERAGE MOMENT   
     ALTERNATE CRIT. FOR RESIDUAL MOMENT    FOR A NONLINEAR PROBLEM    2.000E-02
     CRITERION FOR ZERO MOMENT    RELATIVE TO TIME AVRG. MOMENT        1.000E-05
     CRITERION FOR RESIDUAL MOMENT    WHEN THERE IS ZERO FLUX          1.000E-05
     CRITERION FOR ROTATION CORRECTION WHEN THERE IS ZERO FLUX         1.000E-03
     CRITERION FOR RESIDUAL MOMENT    FOR A LINEAR INCREMENT           1.000E-08
     FIELD CONVERSION RATIO                                             1.00    
     CRITERION FOR ZERO MOMENT    REL. TO TIME AVRG. MAX. MOMENT       1.000E-05

     VOLUMETRIC STRAIN COMPATIBILITY TOLERANCE FOR HYBRID SOLIDS       1.000E-05
     AXIAL STRAIN COMPATIBILITY TOLERANCE FOR HYBRID BEAMS             1.000E-05
     TRANS. SHEAR STRAIN COMPATIBILITY TOLERANCE FOR HYBRID BEAMS      1.000E-05
     SOFT CONTACT CONSTRAINT COMPATIBILITY TOLERANCE FOR P>P0          5.000E-03
     SOFT CONTACT CONSTRAINT COMPATIBILITY TOLERANCE FOR P=0.0         0.100    
     CONTACT FORCE ERROR TOLERANCE FOR CONVERT SDI=YES                 1.00    
     DISPLACEMENT COMPATIBILITY TOLERANCE FOR DCOUP ELEMENTS           1.000E-05
     ROTATION COMPATIBILITY TOLERANCE FOR DCOUP ELEMENTS               1.000E-05

 EQUILIBRIUM WILL BE CHECKED FOR SEVERE DISCONTINUITY ITERATIONS

 TIME INCREMENTATION CONTROL PARAMETERS:
     FIRST EQUILIBRIUM ITERATION FOR CONSECUTIVE DIVERGENCE CHECK              4
     EQUILIBRIUM ITERATION AT WHICH LOG. CONVERGENCE RATE CHECK BEGINS         8
     EQUILIBRIUM ITERATION AFTER WHICH ALTERNATE RESIDUAL IS USED              9
     MAXIMUM EQUILIBRIUM ITERATIONS ALLOWED                                   16
     EQUILIBRIUM ITERATION COUNT FOR CUT-BACK IN NEXT INCREMENT               10
     MAXIMUM EQUILIB. ITERS IN TWO INCREMENTS FOR TIME INCREMENT INCREASE      4
     MAXIMUM ITERATIONS FOR SEVERE DISCONTINUITIES                            50
     MAXIMUM CUT-BACKS ALLOWED IN AN INCREMENT                                 5
     MAXIMUM DISCON. ITERS IN TWO INCREMENTS FOR TIME INCREMENT INCREASE      50
     MAXIMUM CONTACT AUGMENTATIONS FOR *SURFACE BEHAVIOR,AUGMENTED LAGRANGE   50
     CUT-BACK FACTOR AFTER DIVERGENCE                                 0.2500    
     CUT-BACK FACTOR FOR TOO SLOW CONVERGENCE                         0.5000    
     CUT-BACK FACTOR AFTER TOO MANY EQUILIBRIUM ITERATIONS            0.7500    
     CUT-BACK FACTOR AFTER TOO MANY SEVERE DISCONTINUITY ITERATIONS   0.2500    
     CUT-BACK FACTOR AFTER PROBLEMS IN ELEMENT ASSEMBLY               0.2500    
     INCREASE FACTOR AFTER TWO INCREMENTS THAT CONVERGE QUICKLY        1.500    
     MAX. TIME INCREMENT INCREASE FACTOR ALLOWED                       1.500    
     MAX. TIME INCREMENT INCREASE FACTOR ALLOWED (DYNAMICS)            1.250    
     MAX. TIME INCREMENT INCREASE FACTOR ALLOWED (DIFFUSION)           2.000    
     MINIMUM TIME INCREMENT RATIO FOR EXTRAPOLATION TO OCCUR          0.1000    
     MAX. RATIO OF TIME INCREMENT TO STABILITY LIMIT                   1.000    
     FRACTION OF STABILITY LIMIT FOR NEW TIME INCREMENT               0.9500    
     TIME INCREMENT INCREASE FACTOR BEFORE A TIME POINT                1.000    
     GLOBAL STABILIZATION CONTROL IS NOT USED

          PRINT OF INCREMENT NUMBER, TIME, ETC., EVERY    1  INCREMENTS

     THE MAXIMUM NUMBER OF INCREMENTS IN THIS STEP IS                     100

          LARGE DISPLACEMENT THEORY WILL BE USED

          UNSYMMETRIC MATRIX STORAGE AND SOLUTION WILL BE USED

     LINEAR EXTRAPOLATION WILL BE USED

     CHARACTERISTIC ELEMENT LENGTH      1.00    

     DETAILS REGARDING ACTUAL SOLUTION WAVEFRONT REQUESTED

     DETAILED OUTPUT OF DIAGNOSTICS TO DATABASE REQUESTED

     PRINT OF INCREMENT NUMBER, TIME, ETC., TO THE MESSAGE FILE EVERY     1  INCREMENTS

     ELEMENT OPERATIONS WILL BE CARRIED OUT IN PARALLEL USING   2 PROCESSORS

     COLLECTING STEP CONSTRAINT INFORMATION FOR OVERCONSTRAINT CHECKS
  
     ASYNCHRONOUS OUTPUT DATABASE FRAME FLUSH STARTED
  


  INCREMENT     1 STARTS. ATTEMPT NUMBER  1, TIME INCREMENT  0.100    
 
     INITIAL ELEMENT LOAD BALANCE
        COMPUTE NODE   1   PROCESS    NUMBER OF ELEMENTS
                              1            401
                              2            401

  NUMBER OF EQUATIONS =     2006     NUMBER OF FLOATING PT. OPERATIONS =  7.21E+05

  USING THE DIRECT SOLVER WITH   2 PROCESSORS

     CHECK POINT   START OF SOLVER    

     CHECK POINT  END OF SOLVER       

       ELAPSED USER TIME (SEC)      =  0.10000    
       ELAPSED SYSTEM TIME (SEC)    =   0.0000    
       ELAPSED TOTAL CPU TIME (SEC) =  0.10000    
       ELAPSED WALLCLOCK TIME (SEC) =          0

                    2 SEVERE DISCONTINUITIES OCCURRED DURING THIS ITERATION.
                    2 POINTS CHANGED FROM CLOSED TO OPEN

               CONVERGENCE CHECKS FOR SEVERE DISCONTINUITY ITERATION     1

   MAX. PENETRATION ERROR 6.93889E-18 AT NODE 179 OF CONTACT PAIR 
   (PIPELINE,SEABED)
   MAX. CONTACT FORCE ERROR -19.9104      AT NODE 237 OF CONTACT PAIR 
   (PIPELINE,SEABED)
          THE CONTACT CONSTRAINT ERRORS ARE WITHIN THE TOLERANCES.

 AVERAGE FORCE                      4.969E+04   TIME AVG. FORCE       4.969E+04
 LARGEST RESIDUAL FORCE              19.9       AT NODE        237   DOF  2
 LARGEST INCREMENT OF DISP.        -1.544E-02   AT NODE        201   DOF  2
 LARGEST CORRECTION TO DISP.       -1.544E-02   AT NODE        201   DOF  2
          DISP.    CORRECTION TOO LARGE COMPARED TO DISP.    INCREMENT

 AVERAGE MOMENT                     1.759E+05   TIME AVG. MOMENT      1.759E+05
 LARGEST RESIDUAL MOMENT            0.156       AT NODE        221   DOF  6
 LARGEST INCREMENT OF ROTATION     -9.320E-04   AT NODE        187   DOF  6
 LARGEST CORRECTION TO ROTATION    -9.320E-04   AT NODE        187   DOF  6
          ROTATION CORRECTION TOO LARGE COMPARED TO ROTATION INCREMENT

 COMPATIBILITY ERRORS:
    TYPE                NUMBER EXCEEDING TOLERANCE  MAXIMUM ERROR        IN ELEMENT
 BEAM AXIAL                          0                4.347E-07                187
 BEAM SHEAR                          0               -3.264E-09                215

  NUMBER OF EQUATIONS =     2006     NUMBER OF FLOATING PT. OPERATIONS =  7.21E+05

  USING THE DIRECT SOLVER WITH   2 PROCESSORS

     CHECK POINT   START OF SOLVER    

     CHECK POINT  END OF SOLVER       

       ELAPSED USER TIME (SEC)      =   0.0000    
       ELAPSED SYSTEM TIME (SEC)    =   0.0000    
       ELAPSED TOTAL CPU TIME (SEC) =   0.0000    
       ELAPSED WALLCLOCK TIME (SEC) =          0

               CONVERGENCE CHECKS FOR EQUILIBRIUM ITERATION     1

   MAX. PENETRATION ERROR 13.8778E-18  AT NODE 223 OF CONTACT PAIR 
   (PIPELINE,SEABED)
          THE CONTACT CONSTRAINTS HAVE CONVERGED.

 AVERAGE FORCE                      4.970E+04   TIME AVG. FORCE       4.970E+04
 LARGEST RESIDUAL FORCE             1.810E-03   AT NODE        164   DOF  1
 LARGEST INCREMENT OF DISP.        -1.544E-02   AT NODE        201   DOF  2
 LARGEST CORRECTION TO DISP.        2.201E-05   AT NODE        167   DOF  2
          THE FORCE     EQUILIBRIUM EQUATIONS HAVE CONVERGED

 AVERAGE MOMENT                     1.759E+05   TIME AVG. MOMENT      1.759E+05
 LARGEST RESIDUAL MOMENT           -1.351E-02   AT NODE        216   DOF  6
 LARGEST INCREMENT OF ROTATION     -9.320E-04   AT NODE        187   DOF  6
 LARGEST CORRECTION TO ROTATION     2.715E-06   AT NODE        162   DOF  6
          THE MOMENT    EQUILIBRIUM EQUATIONS HAVE CONVERGED

 COMPATIBILITY ERRORS:
    TYPE                NUMBER EXCEEDING TOLERANCE  MAXIMUM ERROR        IN ELEMENT
 BEAM AXIAL                          0                6.081E-12                178
 BEAM SHEAR                          0               -5.936E-11                184

 ITERATION SUMMARY FOR THE INCREMENT:   2 TOTAL ITERATIONS, OF WHICH
   1 ARE SEVERE DISCONTINUITY ITERATIONS AND  1 ARE EQUILIBRIUM ITERATIONS.

 TIME INCREMENT COMPLETED  0.100    ,  FRACTION OF STEP COMPLETED  0.100    
 STEP TIME COMPLETED       0.100    ,  TOTAL TIME COMPLETED         1.10    
  
     ASYNCHRONOUS OUTPUT DATABASE FRAME FLUSH STARTED
  


  INCREMENT     2 STARTS. ATTEMPT NUMBER  1, TIME INCREMENT  0.100    

                   10 SEVERE DISCONTINUITIES OCCURRED DURING INCREMENT ATTEMPT INITIALIZATION.
                   10 POINTS CHANGED FROM STICKING TO SLIPPING

  NUMBER OF EQUATIONS =     2006     NUMBER OF FLOATING PT. OPERATIONS =  7.21E+05

  USING THE DIRECT SOLVER WITH   2 PROCESSORS

     CHECK POINT   START OF SOLVER    

     CHECK POINT  END OF SOLVER       

       ELAPSED USER TIME (SEC)      =  0.10000    
       ELAPSED SYSTEM TIME (SEC)    =   0.0000    
       ELAPSED TOTAL CPU TIME (SEC) =  0.10000    
       ELAPSED WALLCLOCK TIME (SEC) =          0

               CONVERGENCE CHECKS FOR EQUILIBRIUM ITERATION     1

   MAX. PENETRATION ERROR 13.8778E-18  AT NODE 180 OF CONTACT PAIR 
   (PIPELINE,SEABED)
          THE CONTACT CONSTRAINTS HAVE CONVERGED.

 AVERAGE FORCE                      8.791E+04   TIME AVG. FORCE       6.880E+04
 LARGEST RESIDUAL FORCE             5.097E-02   AT NODE        164   DOF  1
 LARGEST INCREMENT OF DISP.        -1.632E-02   AT NODE        201   DOF  2
 LARGEST CORRECTION TO DISP.       -8.821E-04   AT NODE        201   DOF  2
 ESTIMATE OF DISP.    CORRECTION   -3.277E-07
 FORCE     EQUILIB. ACCEPTED BASED ON SMALL RESIDUAL AND ESTIMATED CORRECTION

 AVERAGE MOMENT                     1.775E+05   TIME AVG. MOMENT      1.767E+05
 LARGEST RESIDUAL MOMENT            2.764E-02   AT NODE        186   DOF  6
 LARGEST INCREMENT OF ROTATION      9.848E-04   AT NODE        215   DOF  6
 LARGEST CORRECTION TO ROTATION     5.278E-05   AT NODE        215   DOF  6
          ROTATION CORRECTION TOO LARGE COMPARED TO ROTATION INCREMENT

 COMPATIBILITY ERRORS:
    TYPE                NUMBER EXCEEDING TOLERANCE  MAXIMUM ERROR        IN ELEMENT
 BEAM AXIAL                          0                1.403E-09                187
 BEAM SHEAR                          0                1.610E-10                216

  NUMBER OF EQUATIONS =     2006     NUMBER OF FLOATING PT. OPERATIONS =  7.21E+05

  USING THE DIRECT SOLVER WITH   2 PROCESSORS

     CHECK POINT   START OF SOLVER    

     CHECK POINT  END OF SOLVER       

       ELAPSED USER TIME (SEC)      =  0.10000    
       ELAPSED SYSTEM TIME (SEC)    =   0.0000    
       ELAPSED TOTAL CPU TIME (SEC) =  0.10000    
       ELAPSED WALLCLOCK TIME (SEC) =          0

               CONVERGENCE CHECKS FOR EQUILIBRIUM ITERATION     2

   MAX. PENETRATION ERROR -13.8778E-18  AT NODE 180 OF CONTACT PAIR 
   (PIPELINE,SEABED)
          THE CONTACT CONSTRAINTS HAVE CONVERGED.

 AVERAGE FORCE                      8.791E+04   TIME AVG. FORCE       6.880E+04
 LARGEST RESIDUAL FORCE             2.840E-06   AT NODE        179   DOF  1
 LARGEST INCREMENT OF DISP.        -1.632E-02   AT NODE        201   DOF  2
 LARGEST CORRECTION TO DISP.        4.265E-07   AT NODE        201   DOF  2
          THE FORCE     EQUILIBRIUM EQUATIONS HAVE CONVERGED

 AVERAGE MOMENT                     1.775E+05   TIME AVG. MOMENT      1.767E+05
 LARGEST RESIDUAL MOMENT           -4.942E-05   AT NODE        216   DOF  6
 LARGEST INCREMENT OF ROTATION     -9.847E-04   AT NODE        187   DOF  6
 LARGEST CORRECTION TO ROTATION    -2.967E-08   AT NODE        215   DOF  6
          THE MOMENT    EQUILIBRIUM EQUATIONS HAVE CONVERGED

 COMPATIBILITY ERRORS:
    TYPE                NUMBER EXCEEDING TOLERANCE  MAXIMUM ERROR        IN ELEMENT
 BEAM AXIAL                          0               -9.909E-14                286
 BEAM SHEAR                          0               -2.223E-13                184
          TIME INCREMENT MAY NOW INCREASE TO    0.150    

 ITERATION SUMMARY FOR THE INCREMENT:   2 TOTAL ITERATIONS, OF WHICH
   0 ARE SEVERE DISCONTINUITY ITERATIONS AND  2 ARE EQUILIBRIUM ITERATIONS.

 TIME INCREMENT COMPLETED  0.100    ,  FRACTION OF STEP COMPLETED  0.200    
 STEP TIME COMPLETED       0.200    ,  TOTAL TIME COMPLETED         1.20    
  
     ASYNCHRONOUS OUTPUT DATABASE FRAME FLUSH STARTED
  


  INCREMENT     3 STARTS. ATTEMPT NUMBER  1, TIME INCREMENT  0.150    

                   18 SEVERE DISCONTINUITIES OCCURRED DURING INCREMENT ATTEMPT INITIALIZATION.
                   16 POINTS CHANGED FROM STICKING TO SLIPPING
                    2 POINTS CHANGED TO SLIPPING WITH NEGATIVE CPRESS

  NUMBER OF EQUATIONS =     2006     NUMBER OF FLOATING PT. OPERATIONS =  7.21E+05

  USING THE DIRECT SOLVER WITH   2 PROCESSORS

     CHECK POINT   START OF SOLVER    

     CHECK POINT  END OF SOLVER       

       ELAPSED USER TIME (SEC)      =  0.10000    
       ELAPSED SYSTEM TIME (SEC)    =   0.0000    
       ELAPSED TOTAL CPU TIME (SEC) =  0.10000    
       ELAPSED WALLCLOCK TIME (SEC) =          0

                    6 SEVERE DISCONTINUITIES OCCURRED DURING THIS ITERATION.
                    2 POINTS CHANGED FROM CLOSED TO OPEN
                    4 POINTS CHANGED FROM STICKING TO SLIPPING

               CONVERGENCE CHECKS FOR SEVERE DISCONTINUITY ITERATION     1

   MAX. PENETRATION ERROR 13.8778E-18  AT NODE 222 OF CONTACT PAIR 
   (PIPELINE,SEABED)
   MAX. CONTACT FORCE ERROR -110.193       AT NODE 174 OF CONTACT PAIR 
   (PIPELINE,SEABED)
          THE CONTACT CONSTRAINT ERRORS ARE WITHIN THE TOLERANCES.

 AVERAGE FORCE                      1.444E+05   TIME AVG. FORCE       9.399E+04
 LARGEST RESIDUAL FORCE              110.       AT NODE        174   DOF  2
 LARGEST INCREMENT OF DISP.        -2.637E-02   AT NODE        201   DOF  2
 LARGEST CORRECTION TO DISP.       -1.895E-03   AT NODE        201   DOF  2
          DISP.    CORRECTION TOO LARGE COMPARED TO DISP.    INCREMENT

 AVERAGE MOMENT                     1.790E+05   TIME AVG. MOMENT      1.775E+05
 LARGEST RESIDUAL MOMENT           -6.468E-02   AT NODE        216   DOF  6
 LARGEST INCREMENT OF ROTATION     -1.592E-03   AT NODE        187   DOF  6
 LARGEST CORRECTION TO ROTATION     1.154E-04   AT NODE        214   DOF  6
          ROTATION CORRECTION TOO LARGE COMPARED TO ROTATION INCREMENT

 COMPATIBILITY ERRORS:
    TYPE                NUMBER EXCEEDING TOLERANCE  MAXIMUM ERROR        IN ELEMENT
 BEAM AXIAL                          0                6.681E-09                214
 BEAM SHEAR                          0               -4.781E-10                186

  NUMBER OF EQUATIONS =     2006     NUMBER OF FLOATING PT. OPERATIONS =  7.18E+05

  USING THE DIRECT SOLVER WITH   2 PROCESSORS

     CHECK POINT   START OF SOLVER    

     CHECK POINT  END OF SOLVER       

       ELAPSED USER TIME (SEC)      =  0.10000    
       ELAPSED SYSTEM TIME (SEC)    =   0.0000    
       ELAPSED TOTAL CPU TIME (SEC) =  0.10000    
       ELAPSED WALLCLOCK TIME (SEC) =          0

                    2 SEVERE DISCONTINUITIES OCCURRED DURING THIS ITERATION.
                    2 POINTS CHANGED FROM CLOSED TO OPEN

               CONVERGENCE CHECKS FOR SEVERE DISCONTINUITY ITERATION     2

   MAX. PENETRATION ERROR -6.93889E-18 AT NODE 223 OF CONTACT PAIR 
   (PIPELINE,SEABED)
   MAX. CONTACT FORCE ERROR -5.03085     AT NODE 238 OF CONTACT PAIR 
   (PIPELINE,SEABED)
          THE CONTACT CONSTRAINT ERRORS ARE WITHIN THE TOLERANCES.

 AVERAGE FORCE                      1.445E+05   TIME AVG. FORCE       9.404E+04
 LARGEST RESIDUAL FORCE              5.03       AT NODE        164   DOF  2
 LARGEST INCREMENT OF DISP.        -2.647E-02   AT NODE        201   DOF  2
 LARGEST CORRECTION TO DISP.        1.325E-04   AT NODE        230   DOF  2
          THE FORCE     EQUILIBRIUM EQUATIONS HAVE CONVERGED

 AVERAGE MOMENT                     1.796E+05   TIME AVG. MOMENT      1.777E+05
 LARGEST RESIDUAL MOMENT            7.758E-04   AT NODE        174   DOF  6
 LARGEST INCREMENT OF ROTATION      1.600E-03   AT NODE        215   DOF  6
 LARGEST CORRECTION TO ROTATION     1.690E-05   AT NODE        225   DOF  6
          THE MOMENT    EQUILIBRIUM EQUATIONS HAVE CONVERGED

 COMPATIBILITY ERRORS:
    TYPE                NUMBER EXCEEDING TOLERANCE  MAXIMUM ERROR        IN ELEMENT
 BEAM AXIAL                          0                1.485E-10                223
 BEAM SHEAR                          0                4.128E-12                227
          TIME INCREMENT MAY NOW INCREASE TO    0.225    

 ITERATION SUMMARY FOR THE INCREMENT:   2 TOTAL ITERATIONS, OF WHICH
   2 ARE SEVERE DISCONTINUITY ITERATIONS AND  0 ARE EQUILIBRIUM ITERATIONS.

 TIME INCREMENT COMPLETED  0.150    ,  FRACTION OF STEP COMPLETED  0.350    
 STEP TIME COMPLETED       0.350    ,  TOTAL TIME COMPLETED         1.35    
  
     ASYNCHRONOUS OUTPUT DATABASE FRAME FLUSH STARTED
  


  INCREMENT     4 STARTS. ATTEMPT NUMBER  1, TIME INCREMENT  0.225    

                   30 SEVERE DISCONTINUITIES OCCURRED DURING INCREMENT ATTEMPT INITIALIZATION.
                   30 POINTS CHANGED FROM STICKING TO SLIPPING

  NUMBER OF EQUATIONS =     2006     NUMBER OF FLOATING PT. OPERATIONS =  7.14E+05

  USING THE DIRECT SOLVER WITH   2 PROCESSORS

     CHECK POINT   START OF SOLVER    

     CHECK POINT  END OF SOLVER       

       ELAPSED USER TIME (SEC)      =  0.10000    
       ELAPSED SYSTEM TIME (SEC)    =   0.0000    
       ELAPSED TOTAL CPU TIME (SEC) =  0.10000    
       ELAPSED WALLCLOCK TIME (SEC) =          0
 

 ***WARNING: THE SYSTEM MATRIX HAS 22 NEGATIVE EIGENVALUES.

     NEGATIVE EIGENVALUES MEAN THAT THE SYSTEM MATRIX IS NOT 
     POSITIVE DEFINITE:
     FOR EXAMPLE, A BIFURCATION (BUCKLING) LOAD MAY HAVE BEEN EXCEEDED.

                    6 SEVERE DISCONTINUITIES OCCURRED DURING THIS ITERATION.
                    6 POINTS CHANGED FROM STICKING TO SLIPPING

               CONVERGENCE CHECKS FOR SEVERE DISCONTINUITY ITERATION     1

   MAX. PENETRATION ERROR 13.8778E-18  AT NODE 180 OF CONTACT PAIR 
   (PIPELINE,SEABED)
          THE CONTACT CONSTRAINT ERRORS ARE WITHIN THE TOLERANCES.

 AVERAGE FORCE                      2.288E+05   TIME AVG. FORCE       1.277E+05
 LARGEST RESIDUAL FORCE              13.7       AT NODE        139   DOF  1
 LARGEST INCREMENT OF DISP.        -4.368E-02   AT NODE        201   DOF  2
 LARGEST CORRECTION TO DISP.       -3.976E-03   AT NODE        201   DOF  2
          DISP.    CORRECTION TOO LARGE COMPARED TO DISP.    INCREMENT

 AVERAGE MOMENT                     1.798E+05   TIME AVG. MOMENT      1.782E+05
 LARGEST RESIDUAL MOMENT           -0.165       AT NODE        216   DOF  6
 LARGEST INCREMENT OF ROTATION     -2.642E-03   AT NODE        187   DOF  6
 LARGEST CORRECTION TO ROTATION    -2.422E-04   AT NODE        187   DOF  6
          ROTATION CORRECTION TOO LARGE COMPARED TO ROTATION INCREMENT

 COMPATIBILITY ERRORS:
    TYPE                NUMBER EXCEEDING TOLERANCE  MAXIMUM ERROR        IN ELEMENT
 BEAM AXIAL                          0                2.939E-08                215
 BEAM SHEAR                          0                1.676E-09                215

  NUMBER OF EQUATIONS =     2006     NUMBER OF FLOATING PT. OPERATIONS =  7.14E+05

  USING THE DIRECT SOLVER WITH   2 PROCESSORS

     CHECK POINT   START OF SOLVER    

     CHECK POINT  END OF SOLVER       

       ELAPSED USER TIME (SEC)      =   0.0000    
       ELAPSED SYSTEM TIME (SEC)    =   0.0000    
       ELAPSED TOTAL CPU TIME (SEC) =   0.0000    
       ELAPSED WALLCLOCK TIME (SEC) =          1
 

 ***WARNING: THE SYSTEM MATRIX HAS 22 NEGATIVE EIGENVALUES.
             EXPLANATIONS ARE SUGGESTED AFTER THE FIRST OCCURRENCE OF THIS MESSAGE.

               CONVERGENCE CHECKS FOR EQUILIBRIUM ITERATION     1

   MAX. PENETRATION ERROR -13.8778E-18  AT NODE 180 OF CONTACT PAIR 
   (PIPELINE,SEABED)
          THE CONTACT CONSTRAINTS HAVE CONVERGED.

 AVERAGE FORCE                      2.288E+05   TIME AVG. FORCE       1.277E+05
 LARGEST RESIDUAL FORCE             1.690E-04   AT NODE        180   DOF  1
 LARGEST INCREMENT OF DISP.        -4.368E-02   AT NODE        201   DOF  2
 LARGEST CORRECTION TO DISP.        4.383E-06   AT NODE        201   DOF  2
          THE FORCE     EQUILIBRIUM RESPONSE WAS LINEAR IN THIS INCREMENT

 AVERAGE MOMENT                     1.798E+05   TIME AVG. MOMENT      1.782E+05
 LARGEST RESIDUAL MOMENT            1.356E-03   AT NODE        185   DOF  6
 LARGEST INCREMENT OF ROTATION     -2.642E-03   AT NODE        187   DOF  6
 LARGEST CORRECTION TO ROTATION    -2.787E-07   AT NODE        216   DOF  6
          THE MOMENT    EQUILIBRIUM RESPONSE WAS LINEAR IN THIS INCREMENT

 COMPATIBILITY ERRORS:
    TYPE                NUMBER EXCEEDING TOLERANCE  MAXIMUM ERROR        IN ELEMENT
 BEAM AXIAL                          0                4.358E-13                204
 BEAM SHEAR                          0                6.330E-12                218
          TIME INCREMENT MAY NOW INCREASE TO    0.338    

 ITERATION SUMMARY FOR THE INCREMENT:   2 TOTAL ITERATIONS, OF WHICH
   1 ARE SEVERE DISCONTINUITY ITERATIONS AND  1 ARE EQUILIBRIUM ITERATIONS.

 TIME INCREMENT COMPLETED  0.225    ,  FRACTION OF STEP COMPLETED  0.575    
 STEP TIME COMPLETED       0.575    ,  TOTAL TIME COMPLETED         1.58    
  
     ASYNCHRONOUS OUTPUT DATABASE FRAME FLUSH STARTED
  


  INCREMENT     5 STARTS. ATTEMPT NUMBER  1, TIME INCREMENT  0.338    

                   42 SEVERE DISCONTINUITIES OCCURRED DURING INCREMENT ATTEMPT INITIALIZATION.
                   42 POINTS CHANGED FROM STICKING TO SLIPPING

  NUMBER OF EQUATIONS =     2006     NUMBER OF FLOATING PT. OPERATIONS =  7.13E+05

  USING THE DIRECT SOLVER WITH   2 PROCESSORS

     CHECK POINT   START OF SOLVER    

     CHECK POINT  END OF SOLVER       

       ELAPSED USER TIME (SEC)      =   0.0000    
       ELAPSED SYSTEM TIME (SEC)    =   0.0000    
       ELAPSED TOTAL CPU TIME (SEC) =   0.0000    
       ELAPSED WALLCLOCK TIME (SEC) =          0
 

 ***WARNING: THE SYSTEM MATRIX HAS 179 NEGATIVE EIGENVALUES.
             EXPLANATIONS ARE SUGGESTED AFTER THE FIRST OCCURRENCE OF THIS MESSAGE.

                   14 SEVERE DISCONTINUITIES OCCURRED DURING THIS ITERATION.
                    4 POINTS CHANGED FROM CLOSED TO OPEN
                   10 POINTS CHANGED FROM STICKING TO SLIPPING

               CONVERGENCE CHECKS FOR SEVERE DISCONTINUITY ITERATION     1

   MAX. PENETRATION ERROR 27.7556E-18  AT NODE 222 OF CONTACT PAIR 
   (PIPELINE,SEABED)
   MAX. CONTACT FORCE ERROR -429.884       AT NODE 163 OF CONTACT PAIR 
   (PIPELINE,SEABED)
          THE CONTACT CONSTRAINT ERRORS ARE WITHIN THE TOLERANCES.

 AVERAGE FORCE                      3.579E+05   TIME AVG. FORCE       1.738E+05
 LARGEST RESIDUAL FORCE              430.       AT NODE        163   DOF  2
 LARGEST INCREMENT OF DISP.        -7.342E-02   AT NODE        201   DOF  2
 LARGEST CORRECTION TO DISP.       -7.903E-03   AT NODE        201   DOF  2
          DISP.    CORRECTION TOO LARGE COMPARED TO DISP.    INCREMENT

 AVERAGE MOMENT                     1.837E+05   TIME AVG. MOMENT      1.793E+05
 LARGEST RESIDUAL MOMENT            0.512       AT NODE        186   DOF  6
 LARGEST INCREMENT OF ROTATION      4.439E-03   AT NODE        215   DOF  6
 LARGEST CORRECTION TO ROTATION    -4.765E-04   AT NODE        188   DOF  6
          ROTATION CORRECTION TOO LARGE COMPARED TO ROTATION INCREMENT

 COMPATIBILITY ERRORS:
    TYPE                NUMBER EXCEEDING TOLERANCE  MAXIMUM ERROR        IN ELEMENT
 BEAM AXIAL                          0                1.138E-07                187
 BEAM SHEAR                          0               -7.423E-09                186

  NUMBER OF EQUATIONS =     2006     NUMBER OF FLOATING PT. OPERATIONS =  7.12E+05

  USING THE DIRECT SOLVER WITH   2 PROCESSORS

     CHECK POINT   START OF SOLVER    

     CHECK POINT  END OF SOLVER       

       ELAPSED USER TIME (SEC)      =   0.0000    
       ELAPSED SYSTEM TIME (SEC)    =   0.0000    
       ELAPSED TOTAL CPU TIME (SEC) =   0.0000    
       ELAPSED WALLCLOCK TIME (SEC) =          0
 

 ***WARNING: THE SYSTEM MATRIX HAS 170 NEGATIVE EIGENVALUES.
             EXPLANATIONS ARE SUGGESTED AFTER THE FIRST OCCURRENCE OF THIS MESSAGE.

                    2 SEVERE DISCONTINUITIES OCCURRED DURING THIS ITERATION.
                    2 POINTS CHANGED FROM CLOSED TO OPEN

               CONVERGENCE CHECKS FOR SEVERE DISCONTINUITY ITERATION     2

   MAX. PENETRATION ERROR 13.8778E-18  AT NODE 179 OF CONTACT PAIR 
   (PIPELINE,SEABED)
   MAX. CONTACT FORCE ERROR -24.9806      AT NODE 175 OF CONTACT PAIR 
   (PIPELINE,SEABED)
          THE CONTACT CONSTRAINT ERRORS ARE WITHIN THE TOLERANCES.

 AVERAGE FORCE                      3.582E+05   TIME AVG. FORCE       1.738E+05
 LARGEST RESIDUAL FORCE              25.0       AT NODE        227   DOF  2
 LARGEST INCREMENT OF DISP.        -7.391E-02   AT NODE        201   DOF  2
 LARGEST CORRECTION TO DISP.        7.451E-04   AT NODE        166   DOF  2
          DISP.    CORRECTION TOO LARGE COMPARED TO DISP.    INCREMENT

 AVERAGE MOMENT                     1.828E+05   TIME AVG. MOMENT      1.791E+05
 LARGEST RESIDUAL MOMENT            5.855E-03   AT NODE        240   DOF  6
 LARGEST INCREMENT OF ROTATION      4.465E-03   AT NODE        215   DOF  6
 LARGEST CORRECTION TO ROTATION    -8.948E-05   AT NODE        242   DOF  6
 ESTIMATE OF ROTATION CORRECTION   -1.024E-06
 MOMENT    EQUILIB. ACCEPTED BASED ON SMALL RESIDUAL AND ESTIMATED CORRECTION

 COMPATIBILITY ERRORS:
    TYPE                NUMBER EXCEEDING TOLERANCE  MAXIMUM ERROR        IN ELEMENT
 BEAM AXIAL                          0                4.051E-09                241
 BEAM SHEAR                          0                1.477E-11                215

  NUMBER OF EQUATIONS =     2006     NUMBER OF FLOATING PT. OPERATIONS =  7.12E+05

  USING THE DIRECT SOLVER WITH   2 PROCESSORS

     CHECK POINT   START OF SOLVER    

     CHECK POINT  END OF SOLVER       

       ELAPSED USER TIME (SEC)      =  0.10000    
       ELAPSED SYSTEM TIME (SEC)    =   0.0000    
       ELAPSED TOTAL CPU TIME (SEC) =  0.10000    
       ELAPSED WALLCLOCK TIME (SEC) =          0
 

 ***WARNING: THE SYSTEM MATRIX HAS 171 NEGATIVE EIGENVALUES.
             EXPLANATIONS ARE SUGGESTED AFTER THE FIRST OCCURRENCE OF THIS MESSAGE.

               CONVERGENCE CHECKS FOR EQUILIBRIUM ITERATION     1

   MAX. PENETRATION ERROR -27.7556E-18  AT NODE 180 OF CONTACT PAIR 
   (PIPELINE,SEABED)
          THE CONTACT CONSTRAINTS HAVE CONVERGED.

 AVERAGE FORCE                      3.582E+05   TIME AVG. FORCE       1.738E+05
 LARGEST RESIDUAL FORCE             1.955E-03   AT NODE        227   DOF  1
 LARGEST INCREMENT OF DISP.        -7.392E-02   AT NODE        201   DOF  2
 LARGEST CORRECTION TO DISP.        3.772E-05   AT NODE        230   DOF  2
          THE FORCE     EQUILIBRIUM EQUATIONS HAVE CONVERGED

 AVERAGE MOMENT                     1.828E+05   TIME AVG. MOMENT      1.791E+05
 LARGEST RESIDUAL MOMENT            8.642E-04   AT NODE        175   DOF  6
 LARGEST INCREMENT OF ROTATION      4.466E-03   AT NODE        215   DOF  6
 LARGEST CORRECTION TO ROTATION     4.320E-06   AT NODE        224   DOF  6
          THE MOMENT    EQUILIBRIUM RESPONSE WAS LINEAR IN THIS INCREMENT

 COMPATIBILITY ERRORS:
    TYPE                NUMBER EXCEEDING TOLERANCE  MAXIMUM ERROR        IN ELEMENT
 BEAM AXIAL                          0                1.505E-11                179
 BEAM SHEAR                          0               -1.750E-12                221

 ITERATION SUMMARY FOR THE INCREMENT:   3 TOTAL ITERATIONS, OF WHICH
   2 ARE SEVERE DISCONTINUITY ITERATIONS AND  1 ARE EQUILIBRIUM ITERATIONS.

 TIME INCREMENT COMPLETED  0.338    ,  FRACTION OF STEP COMPLETED  0.913    
 STEP TIME COMPLETED       0.913    ,  TOTAL TIME COMPLETED         1.91    
  
     ASYNCHRONOUS OUTPUT DATABASE FRAME FLUSH STARTED
  


  INCREMENT     6 STARTS. ATTEMPT NUMBER  1, TIME INCREMENT  8.750E-02

                   12 SEVERE DISCONTINUITIES OCCURRED DURING INCREMENT ATTEMPT INITIALIZATION.
                   12 POINTS CHANGED FROM STICKING TO SLIPPING

  NUMBER OF EQUATIONS =     2006     NUMBER OF FLOATING PT. OPERATIONS =  7.12E+05

  USING THE DIRECT SOLVER WITH   2 PROCESSORS

     CHECK POINT   START OF SOLVER    

     CHECK POINT  END OF SOLVER       

       ELAPSED USER TIME (SEC)      =   0.0000    
       ELAPSED SYSTEM TIME (SEC)    =   0.0000    
       ELAPSED TOTAL CPU TIME (SEC) =   0.0000    
       ELAPSED WALLCLOCK TIME (SEC) =          0
 

 ***WARNING: THE SYSTEM MATRIX HAS 200 NEGATIVE EIGENVALUES.
             EXPLANATIONS ARE SUGGESTED AFTER THE FIRST OCCURRENCE OF THIS MESSAGE.

                    2 SEVERE DISCONTINUITIES OCCURRED DURING THIS ITERATION.
                    2 POINTS CHANGED FROM STICKING TO SLIPPING

               CONVERGENCE CHECKS FOR SEVERE DISCONTINUITY ITERATION     1

   MAX. PENETRATION ERROR 13.8778E-18  AT NODE 180 OF CONTACT PAIR 
   (PIPELINE,SEABED)
          THE CONTACT CONSTRAINT ERRORS ARE WITHIN THE TOLERANCES.

 AVERAGE FORCE                      3.918E+05   TIME AVG. FORCE       2.101E+05
 LARGEST RESIDUAL FORCE            -0.828       AT NODE        298   DOF  1
 LARGEST INCREMENT OF DISP.        -2.083E-02   AT NODE        201   DOF  2
 LARGEST CORRECTION TO DISP.       -1.663E-03   AT NODE        201   DOF  2
          DISP.    CORRECTION TOO LARGE COMPARED TO DISP.    INCREMENT

 AVERAGE MOMENT                     1.835E+05   TIME AVG. MOMENT      1.798E+05
 LARGEST RESIDUAL MOMENT           -0.131       AT NODE        216   DOF  6
 LARGEST INCREMENT OF ROTATION     -1.264E-03   AT NODE        187   DOF  6
 LARGEST CORRECTION TO ROTATION    -1.077E-04   AT NODE        185   DOF  6
          ROTATION CORRECTION TOO LARGE COMPARED TO ROTATION INCREMENT

 COMPATIBILITY ERRORS:
    TYPE                NUMBER EXCEEDING TOLERANCE  MAXIMUM ERROR        IN ELEMENT
 BEAM AXIAL                          0                5.747E-09                216
 BEAM SHEAR                          0               -8.520E-10                185

  NUMBER OF EQUATIONS =     2006     NUMBER OF FLOATING PT. OPERATIONS =  7.12E+05

  USING THE DIRECT SOLVER WITH   2 PROCESSORS

     CHECK POINT   START OF SOLVER    

     CHECK POINT  END OF SOLVER       

       ELAPSED USER TIME (SEC)      =  0.10000    
       ELAPSED SYSTEM TIME (SEC)    =   0.0000    
       ELAPSED TOTAL CPU TIME (SEC) =  0.10000    
       ELAPSED WALLCLOCK TIME (SEC) =          0
 

 ***WARNING: THE SYSTEM MATRIX HAS 198 NEGATIVE EIGENVALUES.
             EXPLANATIONS ARE SUGGESTED AFTER THE FIRST OCCURRENCE OF THIS MESSAGE.

               CONVERGENCE CHECKS FOR EQUILIBRIUM ITERATION     1

   MAX. PENETRATION ERROR -13.8778E-18  AT NODE 180 OF CONTACT PAIR 
   (PIPELINE,SEABED)
          THE CONTACT CONSTRAINTS HAVE CONVERGED.

 AVERAGE FORCE                      3.918E+05   TIME AVG. FORCE       2.101E+05
 LARGEST RESIDUAL FORCE            -3.204E-05   AT NODE        222   DOF  1
 LARGEST INCREMENT OF DISP.        -2.082E-02   AT NODE        201   DOF  2
 LARGEST CORRECTION TO DISP.        4.586E-06   AT NODE        201   DOF  2
          THE FORCE     EQUILIBRIUM RESPONSE WAS LINEAR IN THIS INCREMENT

 AVERAGE MOMENT                     1.835E+05   TIME AVG. MOMENT      1.798E+05
 LARGEST RESIDUAL MOMENT           -3.120E-04   AT NODE        218   DOF  6
 LARGEST INCREMENT OF ROTATION     -1.263E-03   AT NODE        187   DOF  6
 LARGEST CORRECTION TO ROTATION    -2.962E-07   AT NODE        216   DOF  6
          THE MOMENT    EQUILIBRIUM RESPONSE WAS LINEAR IN THIS INCREMENT

 COMPATIBILITY ERRORS:
    TYPE                NUMBER EXCEEDING TOLERANCE  MAXIMUM ERROR        IN ELEMENT
 BEAM AXIAL                          0                5.429E-13                200
 BEAM SHEAR                          0                1.467E-12                219

 ITERATION SUMMARY FOR THE INCREMENT:   2 TOTAL ITERATIONS, OF WHICH
   1 ARE SEVERE DISCONTINUITY ITERATIONS AND  1 ARE EQUILIBRIUM ITERATIONS.

 TIME INCREMENT COMPLETED  8.750E-02,  FRACTION OF STEP COMPLETED   1.00    
 STEP TIME COMPLETED        1.00    ,  TOTAL TIME COMPLETED         2.00    


          THE ANALYSIS HAS BEEN COMPLETED



     ANALYSIS SUMMARY:
     TOTAL OF         12  INCREMENTS
                       0  CUTBACKS IN AUTOMATIC INCREMENTATION
                      27  ITERATIONS INCLUDING CONTACT ITERATIONS IF PRESENT
                      27  PASSES THROUGH THE EQUATION SOLVER OF WHICH 
                      27  INVOLVE MATRIX DECOMPOSITION, INCLUDING
                       0  DECOMPOSITION(S) OF THE MASS MATRIX
                       1  REORDERING OF EQUATIONS TO MINIMIZE WAVEFRONT
                       0  ADDITIONAL RESIDUAL EVALUATIONS FOR LINE SEARCHES
                       0  ADDITIONAL OPERATOR EVALUATIONS FOR LINE SEARCHES
                       1  WARNING MESSAGES DURING USER INPUT PROCESSING
                       7  WARNING MESSAGES DURING ANALYSIS
                       0  ANALYSIS WARNINGS ARE NUMERICAL PROBLEM MESSAGES
                       7  ANALYSIS WARNINGS ARE NEGATIVE EIGENVALUE MESSAGES
                       0  ERROR MESSAGES



     JOB TIME SUMMARY
       USER TIME (SEC)      =   7.7000    
       SYSTEM TIME (SEC)    =   2.1000    
       TOTAL CPU TIME (SEC) =   9.8000    
       WALLCLOCK TIME (SEC) =          8
