 Abaqus/Standard 6.14-4                  DATE 24-Aug-2023 TIME 17:19:13
 SUMMARY OF JOB INFORMATION:
 STEP  INC ATT SEVERE EQUIL TOTAL  TOTAL      STEP       INC OF       DOF    IF
               DISCON ITERS ITERS  TIME/    TIME/LPF    TIME/LPF    MONITOR RIKS
               ITERS               FREQ
   1     1   1     3     1     4  0.100      0.100      0.1000    
   1     2   1     0     2     2  0.200      0.200      0.1000    
   1     3   1     0     2     2  0.350      0.350      0.1500    
   1     4   1     1     1     2  0.575      0.575      0.2250    
   1     5   1     1     1     2  0.913      0.913      0.3375    
   1     6   1     1     1     2  1.00       1.00       0.08750   
   2     1   1     1     1     2  1.10       0.100      0.1000    
   2     2   1     0     2     2  1.20       0.200      0.1000    
   2     3   1     1     1     2  1.35       0.350      0.1500    
   2     4   1     1     1     2  1.58       0.575      0.2250    
   2     5   1     1     1     2  1.91       0.913      0.3375    
   2     6   1     1     1     2  2.00       1.00       0.08750   
                          
 THE ANALYSIS HAS COMPLETED SUCCESSFULLY
