1

   Abaqus 6.14-4                                  Date 24-Aug-2023   Time 17:20:04
   For use by T_EN NET SAS under license from Dassault Systemes or its subsidiary.

                                                                                 
 INITIAL SET UP                                                                  
 STEP    1     INCREMENT     1     STEP TIME    0.00    


                        S T E P       1     S T A T I C   A N A L Y S I S


          INITIAL SET UP                                                                  

     AUTOMATIC TIME CONTROL WITH -
          A SUGGESTED INITIAL TIME INCREMENT OF                1.000E-04
          AND A TOTAL TIME PERIOD OF                            1.00    
          THE MINIMUM TIME INCREMENT ALLOWED IS                1.000E-09
          THE MAXIMUM TIME INCREMENT ALLOWED IS                 1.00    

     LINEAR EQUATION SOLVER TYPE         DIRECT SPARSE

 CONVERGENCE TOLERANCE PARAMETERS FOR FORCE    
     CRITERION FOR RESIDUAL FORCE     FOR A NONLINEAR PROBLEM          5.000E-03
     CRITERION FOR DISP.    CORRECTION IN A NONLINEAR PROBLEM          1.000E-02
     INITIAL VALUE OF TIME AVERAGE FORCE                               1.000E-02
     AVERAGE FORCE     IS TIME AVERAGE FORCE    
     ALTERNATE CRIT. FOR RESIDUAL FORCE     FOR A NONLINEAR PROBLEM    2.000E-02
     CRITERION FOR ZERO FORCE     RELATIVE TO TIME AVRG. FORCE         1.000E-05
     CRITERION FOR RESIDUAL FORCE     WHEN THERE IS ZERO FLUX          1.000E-05
     CRITERION FOR DISP.    CORRECTION WHEN THERE IS ZERO FLUX         1.000E-03
     CRITERION FOR RESIDUAL FORCE     FOR A LINEAR INCREMENT           1.000E-08
     FIELD CONVERSION RATIO                                             1.00    
     CRITERION FOR ZERO FORCE     REL. TO TIME AVRG. MAX. FORCE        1.000E-05
     CRITERION FOR ZERO DISP.    RELATIVE TO CHARACTERISTIC LENGTH     1.000E-08

 CONVERGENCE TOLERANCE PARAMETERS FOR MOMENT   
     CRITERION FOR RESIDUAL MOMENT    FOR A NONLINEAR PROBLEM          5.000E-03
     CRITERION FOR ROTATION CORRECTION IN A NONLINEAR PROBLEM          1.000E-02
     INITIAL VALUE OF TIME AVERAGE MOMENT                              1.000E-02
     AVERAGE MOMENT    IS TIME AVERAGE MOMENT   
     ALTERNATE CRIT. FOR RESIDUAL MOMENT    FOR A NONLINEAR PROBLEM    2.000E-02
     CRITERION FOR ZERO MOMENT    RELATIVE TO TIME AVRG. MOMENT        1.000E-05
     CRITERION FOR RESIDUAL MOMENT    WHEN THERE IS ZERO FLUX          1.000E-05
     CRITERION FOR ROTATION CORRECTION WHEN THERE IS ZERO FLUX         1.000E-03
     CRITERION FOR RESIDUAL MOMENT    FOR A LINEAR INCREMENT           1.000E-08
     FIELD CONVERSION RATIO                                             1.00    
     CRITERION FOR ZERO MOMENT    REL. TO TIME AVRG. MAX. MOMENT       1.000E-05

     VOLUMETRIC STRAIN COMPATIBILITY TOLERANCE FOR HYBRID SOLIDS       1.000E-05
     AXIAL STRAIN COMPATIBILITY TOLERANCE FOR HYBRID BEAMS             1.000E-05
     TRANS. SHEAR STRAIN COMPATIBILITY TOLERANCE FOR HYBRID BEAMS      1.000E-05
     SOFT CONTACT CONSTRAINT COMPATIBILITY TOLERANCE FOR P>P0          5.000E-03
     SOFT CONTACT CONSTRAINT COMPATIBILITY TOLERANCE FOR P=0.0         0.100    
     CONTACT FORCE ERROR TOLERANCE FOR CONVERT SDI=YES                 1.00    
     DISPLACEMENT COMPATIBILITY TOLERANCE FOR DCOUP ELEMENTS           1.000E-05
     ROTATION COMPATIBILITY TOLERANCE FOR DCOUP ELEMENTS               1.000E-05

 EQUILIBRIUM WILL BE CHECKED FOR SEVERE DISCONTINUITY ITERATIONS

 TIME INCREMENTATION CONTROL PARAMETERS:
 *** FIRST EQUILIBRIUM ITERATION FOR CONSECUTIVE DIVERGENCE CHECK              8
 *** EQUILIBRIUM ITERATION AT WHICH LOG. CONVERGENCE RATE CHECK BEGINS        10
     EQUILIBRIUM ITERATION AFTER WHICH ALTERNATE RESIDUAL IS USED              9
     MAXIMUM EQUILIBRIUM ITERATIONS ALLOWED                                   16
     EQUILIBRIUM ITERATION COUNT FOR CUT-BACK IN NEXT INCREMENT               10
     MAXIMUM EQUILIB. ITERS IN TWO INCREMENTS FOR TIME INCREMENT INCREASE      4
     MAXIMUM ITERATIONS FOR SEVERE DISCONTINUITIES                            50
     MAXIMUM CUT-BACKS ALLOWED IN AN INCREMENT                                 5
     MAXIMUM DISCON. ITERS IN TWO INCREMENTS FOR TIME INCREMENT INCREASE      50
     MAXIMUM CONTACT AUGMENTATIONS FOR *SURFACE BEHAVIOR,AUGMENTED LAGRANGE   50
     CUT-BACK FACTOR AFTER DIVERGENCE                                 0.2500    
     CUT-BACK FACTOR FOR TOO SLOW CONVERGENCE                         0.5000    
     CUT-BACK FACTOR AFTER TOO MANY EQUILIBRIUM ITERATIONS            0.7500    
     CUT-BACK FACTOR AFTER TOO MANY SEVERE DISCONTINUITY ITERATIONS   0.2500    
     CUT-BACK FACTOR AFTER PROBLEMS IN ELEMENT ASSEMBLY               0.2500    
     INCREASE FACTOR AFTER TWO INCREMENTS THAT CONVERGE QUICKLY        1.500    
     MAX. TIME INCREMENT INCREASE FACTOR ALLOWED                       1.500    
     MAX. TIME INCREMENT INCREASE FACTOR ALLOWED (DYNAMICS)            1.250    
     MAX. TIME INCREMENT INCREASE FACTOR ALLOWED (DIFFUSION)           2.000    
     MINIMUM TIME INCREMENT RATIO FOR EXTRAPOLATION TO OCCUR          0.1000    
     MAX. RATIO OF TIME INCREMENT TO STABILITY LIMIT                   1.000    
     FRACTION OF STABILITY LIMIT FOR NEW TIME INCREMENT               0.9500    
     TIME INCREMENT INCREASE FACTOR BEFORE A TIME POINT                1.000    

 *** INDICATES USE OF NON-DEFAULT TIME INCREMENTATION CONTROL PARAMETER
     SELECTED WITH *CONTROLS
     GLOBAL STABILIZATION CONTROL IS NOT USED

          PRINT OF INCREMENT NUMBER, TIME, ETC., EVERY    1  INCREMENTS

     THE MAXIMUM NUMBER OF INCREMENTS IN THIS STEP IS                     100

          LARGE DISPLACEMENT THEORY WILL BE USED

     LINEAR EXTRAPOLATION WILL BE USED

     CHARACTERISTIC ELEMENT LENGTH      1.00    

     DETAILS REGARDING ACTUAL SOLUTION WAVEFRONT REQUESTED

     DETAILED OUTPUT OF DIAGNOSTICS TO DATABASE REQUESTED

     PRINT OF INCREMENT NUMBER, TIME, ETC., TO THE MESSAGE FILE EVERY     1  INCREMENTS

     ELEMENT OPERATIONS WILL BE CARRIED OUT IN PARALLEL USING   2 PROCESSORS

     PARALLEL CONTACT TRACKING ENABLED


     COLLECTING MODEL CONSTRAINT INFORMATION FOR OVERCONSTRAINT CHECKS

     COLLECTING STEP CONSTRAINT INFORMATION FOR OVERCONSTRAINT CHECKS
  
     ASYNCHRONOUS OUTPUT DATABASE FRAME FLUSH STARTED
  


  INCREMENT     1 STARTS. ATTEMPT NUMBER  1, TIME INCREMENT  1.000E-04
 
     INITIAL ELEMENT LOAD BALANCE
        COMPUTE NODE   1   PROCESS    NUMBER OF ELEMENTS
                              1            256
                              2            352

  NUMBER OF EQUATIONS =     1806     NUMBER OF FLOATING PT. OPERATIONS =  7.25E+05

  USING THE DIRECT SOLVER WITH   2 PROCESSORS

     CHECK POINT   START OF SOLVER    

     CHECK POINT  END OF SOLVER       

       ELAPSED USER TIME (SEC)      =  0.10000    
       ELAPSED SYSTEM TIME (SEC)    =   0.0000    
       ELAPSED TOTAL CPU TIME (SEC) =  0.10000    
       ELAPSED WALLCLOCK TIME (SEC) =          0

               CONVERGENCE CHECKS FOR EQUILIBRIUM ITERATION     1


 AVERAGE FORCE                       17.4       TIME AVG. FORCE        17.4    
 ALL FORCE     RESIDUALS ARE ZERO
 LARGEST INCREMENT OF DISP.         4.464E-35   AT NODE          1   DOF  1
 LARGEST CORRECTION TO DISP.        4.464E-35   AT NODE          1   DOF  1
          THE FORCE     EQUILIBRIUM RESPONSE WAS LINEAR IN THIS INCREMENT

 AVERAGE MOMENT                     7.652E-10   TIME AVG. MOMENT       17.4    
                                                (FROM FORCE     FIELD)
 LARGEST RESIDUAL MOMENT           -1.468E-11   AT NODE         99   DOF  6
 LARGEST INCREMENT OF ROTATION     -3.251E-16   AT NODE         85   DOF  6
 LARGEST CORRECTION TO ROTATION    -3.251E-16   AT NODE         85   DOF  6
          THERE IS ZERO MOMENT    EVERYWHERE

 COMPATIBILITY ERRORS:
    TYPE                NUMBER EXCEEDING TOLERANCE  MAXIMUM ERROR        IN ELEMENT
 BEAM AXIAL                          0               -2.231E-14                133
 BEAM SHEAR                          0               -4.192E-18                117

 ITERATION SUMMARY FOR THE INCREMENT:   1 TOTAL ITERATIONS, OF WHICH
   0 ARE SEVERE DISCONTINUITY ITERATIONS AND  1 ARE EQUILIBRIUM ITERATIONS.

 TIME INCREMENT COMPLETED  1.000E-04,  FRACTION OF STEP COMPLETED  1.000E-04
 STEP TIME COMPLETED       1.000E-04,  TOTAL TIME COMPLETED        1.000E-04


  INCREMENT     2 STARTS. ATTEMPT NUMBER  1, TIME INCREMENT  1.000E-04

  NUMBER OF EQUATIONS =     1806     NUMBER OF FLOATING PT. OPERATIONS =  7.25E+05

  USING THE DIRECT SOLVER WITH   2 PROCESSORS

     CHECK POINT   START OF SOLVER    

     CHECK POINT  END OF SOLVER       

       ELAPSED USER TIME (SEC)      =  0.10000    
       ELAPSED SYSTEM TIME (SEC)    =  0.10000    
       ELAPSED TOTAL CPU TIME (SEC) =  0.20000    
       ELAPSED WALLCLOCK TIME (SEC) =          0

               CONVERGENCE CHECKS FOR EQUILIBRIUM ITERATION     1


 AVERAGE FORCE                       55.5       TIME AVG. FORCE        36.4    
 ALL FORCE     RESIDUALS ARE ZERO
 LARGEST INCREMENT OF DISP.         8.929E-35   AT NODE        164   DOF  1
 LARGEST CORRECTION TO DISP.        8.929E-35   AT NODE        164   DOF  1
          THE FORCE     EQUILIBRIUM RESPONSE WAS LINEAR IN THIS INCREMENT

 AVERAGE MOMENT                     7.567E-10   TIME AVG. MOMENT       17.4    
                                                (FROM FORCE     FIELD)
 LARGEST RESIDUAL MOMENT           -2.173E-11   AT NODE        103   DOF  6
 LARGEST INCREMENT OF ROTATION     -5.427E-18   AT NODE        115   DOF  6
 LARGEST CORRECTION TO ROTATION     3.200E-16   AT NODE         85   DOF  6
          THERE IS ZERO MOMENT    EVERYWHERE

 COMPATIBILITY ERRORS:
    TYPE                NUMBER EXCEEDING TOLERANCE  MAXIMUM ERROR        IN ELEMENT
 BEAM AXIAL                          0               -1.350E-20                 30
 BEAM SHEAR                          0                5.468E-18                 85
          TIME INCREMENT MAY NOW INCREASE TO    1.500E-04

 ITERATION SUMMARY FOR THE INCREMENT:   1 TOTAL ITERATIONS, OF WHICH
   0 ARE SEVERE DISCONTINUITY ITERATIONS AND  1 ARE EQUILIBRIUM ITERATIONS.

 TIME INCREMENT COMPLETED  1.000E-04,  FRACTION OF STEP COMPLETED  2.000E-04
 STEP TIME COMPLETED       2.000E-04,  TOTAL TIME COMPLETED        2.000E-04


  INCREMENT     3 STARTS. ATTEMPT NUMBER  1, TIME INCREMENT  1.500E-04

  NUMBER OF EQUATIONS =     1806     NUMBER OF FLOATING PT. OPERATIONS =  7.25E+05

  USING THE DIRECT SOLVER WITH   2 PROCESSORS

     CHECK POINT   START OF SOLVER    

     CHECK POINT  END OF SOLVER       

       ELAPSED USER TIME (SEC)      =  0.10000    
       ELAPSED SYSTEM TIME (SEC)    =   0.0000    
       ELAPSED TOTAL CPU TIME (SEC) =  0.10000    
       ELAPSED WALLCLOCK TIME (SEC) =          1

               CONVERGENCE CHECKS FOR EQUILIBRIUM ITERATION     1


 AVERAGE FORCE                       97.1       TIME AVG. FORCE        56.7    
 ALL FORCE     RESIDUALS ARE ZERO
 LARGEST INCREMENT OF DISP.         6.697E-35   AT NODE        185   DOF  1
 LARGEST CORRECTION TO DISP.       -6.697E-35   AT NODE        174   DOF  1
          THE FORCE     EQUILIBRIUM RESPONSE WAS LINEAR IN THIS INCREMENT

 AVERAGE MOMENT                     7.526E-10   TIME AVG. MOMENT       36.4    
                                                (FROM FORCE     FIELD)
 LARGEST RESIDUAL MOMENT           -1.792E-11   AT NODE        102   DOF  6
 LARGEST INCREMENT OF ROTATION      4.448E-18   AT NODE         85   DOF  6
 LARGEST CORRECTION TO ROTATION     1.219E-17   AT NODE        115   DOF  6
          THERE IS ZERO MOMENT    EVERYWHERE

 COMPATIBILITY ERRORS:
    TYPE                NUMBER EXCEEDING TOLERANCE  MAXIMUM ERROR        IN ELEMENT
 BEAM AXIAL                          0                1.351E-20                107
 BEAM SHEAR                          0                3.718E-18                113
          TIME INCREMENT MAY NOW INCREASE TO    2.250E-04

 ITERATION SUMMARY FOR THE INCREMENT:   1 TOTAL ITERATIONS, OF WHICH
   0 ARE SEVERE DISCONTINUITY ITERATIONS AND  1 ARE EQUILIBRIUM ITERATIONS.

 TIME INCREMENT COMPLETED  1.500E-04,  FRACTION OF STEP COMPLETED  3.500E-04
 STEP TIME COMPLETED       3.500E-04,  TOTAL TIME COMPLETED        3.500E-04


  INCREMENT     4 STARTS. ATTEMPT NUMBER  1, TIME INCREMENT  2.250E-04

  NUMBER OF EQUATIONS =     1806     NUMBER OF FLOATING PT. OPERATIONS =  7.25E+05

  USING THE DIRECT SOLVER WITH   2 PROCESSORS

     CHECK POINT   START OF SOLVER    

     CHECK POINT  END OF SOLVER       

       ELAPSED USER TIME (SEC)      =   0.0000    
       ELAPSED SYSTEM TIME (SEC)    =   0.0000    
       ELAPSED TOTAL CPU TIME (SEC) =   0.0000    
       ELAPSED WALLCLOCK TIME (SEC) =          0

               CONVERGENCE CHECKS FOR EQUILIBRIUM ITERATION     1


 AVERAGE FORCE                       155.       TIME AVG. FORCE        81.2    
 ALL FORCE     RESIDUALS ARE ZERO
 LARGEST INCREMENT OF DISP.         1.005E-34   AT NODE        131   DOF  1
 LARGEST CORRECTION TO DISP.        3.134E-40   AT NODE        134   DOF  1
          THE FORCE     EQUILIBRIUM RESPONSE WAS LINEAR IN THIS INCREMENT

 AVERAGE MOMENT                     7.496E-10   TIME AVG. MOMENT       56.7    
                                                (FROM FORCE     FIELD)
 LARGEST RESIDUAL MOMENT            1.815E-11   AT NODE        128   DOF  6
 LARGEST INCREMENT OF ROTATION     -4.216E-18   AT NODE        115   DOF  6
 LARGEST CORRECTION TO ROTATION    -1.029E-17   AT NODE        115   DOF  6
          THERE IS ZERO MOMENT    EVERYWHERE

 COMPATIBILITY ERRORS:
    TYPE                NUMBER EXCEEDING TOLERANCE  MAXIMUM ERROR        IN ELEMENT
 BEAM AXIAL                          0               -1.351E-20                 20
 BEAM SHEAR                          0                3.602E-18                 85
          TIME INCREMENT MAY NOW INCREASE TO    3.375E-04

 ITERATION SUMMARY FOR THE INCREMENT:   1 TOTAL ITERATIONS, OF WHICH
   0 ARE SEVERE DISCONTINUITY ITERATIONS AND  1 ARE EQUILIBRIUM ITERATIONS.

 TIME INCREMENT COMPLETED  2.250E-04,  FRACTION OF STEP COMPLETED  5.750E-04
 STEP TIME COMPLETED       5.750E-04,  TOTAL TIME COMPLETED        5.750E-04


  INCREMENT     5 STARTS. ATTEMPT NUMBER  1, TIME INCREMENT  3.375E-04

  NUMBER OF EQUATIONS =     1806     NUMBER OF FLOATING PT. OPERATIONS =  7.25E+05

  USING THE DIRECT SOLVER WITH   2 PROCESSORS

     CHECK POINT   START OF SOLVER    

     CHECK POINT  END OF SOLVER       

       ELAPSED USER TIME (SEC)      =  0.10000    
       ELAPSED SYSTEM TIME (SEC)    =   0.0000    
       ELAPSED TOTAL CPU TIME (SEC) =  0.10000    
       ELAPSED WALLCLOCK TIME (SEC) =          0

               CONVERGENCE CHECKS FOR EQUILIBRIUM ITERATION     1


 AVERAGE FORCE                       246.       TIME AVG. FORCE        114.    
 ALL FORCE     RESIDUALS ARE ZERO
 LARGEST INCREMENT OF DISP.         1.507E-34   AT NODE         21   DOF  1
 LARGEST CORRECTION TO DISP.       -1.343E-40   AT NODE        134   DOF  1
          THE FORCE     EQUILIBRIUM RESPONSE WAS LINEAR IN THIS INCREMENT

 AVERAGE MOMENT                     7.456E-10   TIME AVG. MOMENT       81.2    
                                                (FROM FORCE     FIELD)
 LARGEST RESIDUAL MOMENT            2.155E-11   AT NODE        110   DOF  6
 LARGEST INCREMENT OF ROTATION      4.513E-18   AT NODE         89   DOF  6
 LARGEST CORRECTION TO ROTATION     7.092E-18   AT NODE        115   DOF  6
          THERE IS ZERO MOMENT    EVERYWHERE

 COMPATIBILITY ERRORS:
    TYPE                NUMBER EXCEEDING TOLERANCE  MAXIMUM ERROR        IN ELEMENT
 BEAM AXIAL                          0               -1.353E-20                110
 BEAM SHEAR                          0               -2.896E-18                117
          TIME INCREMENT MAY NOW INCREASE TO    5.062E-04

 ITERATION SUMMARY FOR THE INCREMENT:   1 TOTAL ITERATIONS, OF WHICH
   0 ARE SEVERE DISCONTINUITY ITERATIONS AND  1 ARE EQUILIBRIUM ITERATIONS.

 TIME INCREMENT COMPLETED  3.375E-04,  FRACTION OF STEP COMPLETED  9.125E-04
 STEP TIME COMPLETED       9.125E-04,  TOTAL TIME COMPLETED        9.125E-04


  INCREMENT     6 STARTS. ATTEMPT NUMBER  1, TIME INCREMENT  5.062E-04

  NUMBER OF EQUATIONS =     1806     NUMBER OF FLOATING PT. OPERATIONS =  7.25E+05

  USING THE DIRECT SOLVER WITH   2 PROCESSORS

     CHECK POINT   START OF SOLVER    

     CHECK POINT  END OF SOLVER       

       ELAPSED USER TIME (SEC)      =  0.10000    
       ELAPSED SYSTEM TIME (SEC)    =   0.0000    
       ELAPSED TOTAL CPU TIME (SEC) =  0.10000    
       ELAPSED WALLCLOCK TIME (SEC) =          0

               CONVERGENCE CHECKS FOR EQUILIBRIUM ITERATION     1


 AVERAGE FORCE                       382.       TIME AVG. FORCE        159.    
 ALL FORCE     RESIDUALS ARE ZERO
 LARGEST INCREMENT OF DISP.         2.260E-34   AT NODE         15   DOF  1
 LARGEST CORRECTION TO DISP.        5.390E-45   AT NODE         86   DOF  2
          THE FORCE     EQUILIBRIUM RESPONSE WAS LINEAR IN THIS INCREMENT

 AVERAGE MOMENT                     7.386E-10   TIME AVG. MOMENT       114.    
                                                (FROM FORCE     FIELD)
 LARGEST RESIDUAL MOMENT           -2.356E-11   AT NODE         79   DOF  6
 LARGEST INCREMENT OF ROTATION     -4.524E-18   AT NODE        118   DOF  6
 LARGEST CORRECTION TO ROTATION    -9.600E-18   AT NODE         89   DOF  6
          THERE IS ZERO MOMENT    EVERYWHERE

 COMPATIBILITY ERRORS:
    TYPE                NUMBER EXCEEDING TOLERANCE  MAXIMUM ERROR        IN ELEMENT
 BEAM AXIAL                          0                1.351E-20                 49
 BEAM SHEAR                          0               -3.988E-18                116
          TIME INCREMENT MAY NOW INCREASE TO    7.594E-04

 ITERATION SUMMARY FOR THE INCREMENT:   1 TOTAL ITERATIONS, OF WHICH
   0 ARE SEVERE DISCONTINUITY ITERATIONS AND  1 ARE EQUILIBRIUM ITERATIONS.

 TIME INCREMENT COMPLETED  5.062E-04,  FRACTION OF STEP COMPLETED  1.419E-03
 STEP TIME COMPLETED       1.419E-03,  TOTAL TIME COMPLETED        1.419E-03


  INCREMENT     7 STARTS. ATTEMPT NUMBER  1, TIME INCREMENT  7.594E-04

  NUMBER OF EQUATIONS =     1806     NUMBER OF FLOATING PT. OPERATIONS =  7.25E+05

  USING THE DIRECT SOLVER WITH   2 PROCESSORS

     CHECK POINT   START OF SOLVER    

     CHECK POINT  END OF SOLVER       

       ELAPSED USER TIME (SEC)      =  0.10000    
       ELAPSED SYSTEM TIME (SEC)    =   0.0000    
       ELAPSED TOTAL CPU TIME (SEC) =  0.10000    
       ELAPSED WALLCLOCK TIME (SEC) =          0

               CONVERGENCE CHECKS FOR EQUILIBRIUM ITERATION     1


 AVERAGE FORCE                       576.       TIME AVG. FORCE        218.    
 ALL FORCE     RESIDUALS ARE ZERO
 LARGEST INCREMENT OF DISP.         3.391E-34   AT NODE         21   DOF  1
 LARGEST CORRECTION TO DISP.        6.105E-45   AT NODE        117   DOF  2
          THE FORCE     EQUILIBRIUM RESPONSE WAS LINEAR IN THIS INCREMENT

 AVERAGE MOMENT                     7.385E-10   TIME AVG. MOMENT       159.    
                                                (FROM FORCE     FIELD)
 LARGEST RESIDUAL MOMENT           -2.615E-11   AT NODE        124   DOF  6
 LARGEST INCREMENT OF ROTATION     -4.379E-18   AT NODE        116   DOF  6
 LARGEST CORRECTION TO ROTATION     8.754E-18   AT NODE        118   DOF  6
          THERE IS ZERO MOMENT    EVERYWHERE

 COMPATIBILITY ERRORS:
    TYPE                NUMBER EXCEEDING TOLERANCE  MAXIMUM ERROR        IN ELEMENT
 BEAM AXIAL                          0                1.351E-20                 71
 BEAM SHEAR                          0                5.804E-18                115
          TIME INCREMENT MAY NOW INCREASE TO    1.139E-03

 ITERATION SUMMARY FOR THE INCREMENT:   1 TOTAL ITERATIONS, OF WHICH
   0 ARE SEVERE DISCONTINUITY ITERATIONS AND  1 ARE EQUILIBRIUM ITERATIONS.

 TIME INCREMENT COMPLETED  7.594E-04,  FRACTION OF STEP COMPLETED  2.178E-03
 STEP TIME COMPLETED       2.178E-03,  TOTAL TIME COMPLETED        2.178E-03


  INCREMENT     8 STARTS. ATTEMPT NUMBER  1, TIME INCREMENT  1.139E-03

  NUMBER OF EQUATIONS =     1806     NUMBER OF FLOATING PT. OPERATIONS =  7.25E+05

  USING THE DIRECT SOLVER WITH   2 PROCESSORS

     CHECK POINT   START OF SOLVER    

     CHECK POINT  END OF SOLVER       

       ELAPSED USER TIME (SEC)      =   0.0000    
       ELAPSED SYSTEM TIME (SEC)    =   0.0000    
       ELAPSED TOTAL CPU TIME (SEC) =   0.0000    
       ELAPSED WALLCLOCK TIME (SEC) =          0

               CONVERGENCE CHECKS FOR EQUILIBRIUM ITERATION     1


 AVERAGE FORCE                       877.       TIME AVG. FORCE        301.    
 ALL FORCE     RESIDUALS ARE ZERO
 LARGEST INCREMENT OF DISP.         5.086E-34   AT NODE         22   DOF  1
 LARGEST CORRECTION TO DISP.       -6.793E-45   AT NODE        117   DOF  2
          THE FORCE     EQUILIBRIUM RESPONSE WAS LINEAR IN THIS INCREMENT

 AVERAGE MOMENT                     7.366E-10   TIME AVG. MOMENT       218.    
                                                (FROM FORCE     FIELD)
 LARGEST RESIDUAL MOMENT            1.954E-11   AT NODE         95   DOF  6
 LARGEST INCREMENT OF ROTATION      4.615E-18   AT NODE        116   DOF  6
 LARGEST CORRECTION TO ROTATION     1.118E-17   AT NODE        116   DOF  6
          THERE IS ZERO MOMENT    EVERYWHERE

 COMPATIBILITY ERRORS:
    TYPE                NUMBER EXCEEDING TOLERANCE  MAXIMUM ERROR        IN ELEMENT
 BEAM AXIAL                          0                1.351E-20                 11
 BEAM SHEAR                          0               -4.730E-18                115
          TIME INCREMENT MAY NOW INCREASE TO    1.709E-03

 ITERATION SUMMARY FOR THE INCREMENT:   1 TOTAL ITERATIONS, OF WHICH
   0 ARE SEVERE DISCONTINUITY ITERATIONS AND  1 ARE EQUILIBRIUM ITERATIONS.

 TIME INCREMENT COMPLETED  1.139E-03,  FRACTION OF STEP COMPLETED  3.317E-03
 STEP TIME COMPLETED       3.317E-03,  TOTAL TIME COMPLETED        3.317E-03


  INCREMENT     9 STARTS. ATTEMPT NUMBER  1, TIME INCREMENT  1.709E-03

  NUMBER OF EQUATIONS =     1806     NUMBER OF FLOATING PT. OPERATIONS =  7.25E+05

  USING THE DIRECT SOLVER WITH   2 PROCESSORS

     CHECK POINT   START OF SOLVER    

     CHECK POINT  END OF SOLVER       

       ELAPSED USER TIME (SEC)      =  0.10000    
       ELAPSED SYSTEM TIME (SEC)    =   0.0000    
       ELAPSED TOTAL CPU TIME (SEC) =  0.10000    
       ELAPSED WALLCLOCK TIME (SEC) =          0

               CONVERGENCE CHECKS FOR EQUILIBRIUM ITERATION     1


 AVERAGE FORCE                      1.329E+03   TIME AVG. FORCE        415.    
 ALL FORCE     RESIDUALS ARE ZERO
 LARGEST INCREMENT OF DISP.         7.629E-34   AT NODE         11   DOF  1
 LARGEST CORRECTION TO DISP.        4.554E-45   AT NODE         87   DOF  2
          THE FORCE     EQUILIBRIUM RESPONSE WAS LINEAR IN THIS INCREMENT

 AVERAGE MOMENT                     7.302E-10   TIME AVG. MOMENT       301.    
                                                (FROM FORCE     FIELD)
 LARGEST RESIDUAL MOMENT           -2.090E-11   AT NODE         78   DOF  6
 LARGEST INCREMENT OF ROTATION      3.686E-18   AT NODE         86   DOF  6
 LARGEST CORRECTION TO ROTATION    -9.589E-18   AT NODE        116   DOF  6
          THERE IS ZERO MOMENT    EVERYWHERE

 COMPATIBILITY ERRORS:
    TYPE                NUMBER EXCEEDING TOLERANCE  MAXIMUM ERROR        IN ELEMENT
 BEAM AXIAL                          0                1.343E-20                 91
 BEAM SHEAR                          0               -3.874E-18                116
          TIME INCREMENT MAY NOW INCREASE TO    2.563E-03

 ITERATION SUMMARY FOR THE INCREMENT:   1 TOTAL ITERATIONS, OF WHICH
   0 ARE SEVERE DISCONTINUITY ITERATIONS AND  1 ARE EQUILIBRIUM ITERATIONS.

 TIME INCREMENT COMPLETED  1.709E-03,  FRACTION OF STEP COMPLETED  5.026E-03
 STEP TIME COMPLETED       5.026E-03,  TOTAL TIME COMPLETED        5.026E-03


  INCREMENT    10 STARTS. ATTEMPT NUMBER  1, TIME INCREMENT  2.563E-03

  NUMBER OF EQUATIONS =     1806     NUMBER OF FLOATING PT. OPERATIONS =  7.25E+05

  USING THE DIRECT SOLVER WITH   2 PROCESSORS

     CHECK POINT   START OF SOLVER    

     CHECK POINT  END OF SOLVER       

       ELAPSED USER TIME (SEC)      =   0.0000    
       ELAPSED SYSTEM TIME (SEC)    =   0.0000    
       ELAPSED TOTAL CPU TIME (SEC) =   0.0000    
       ELAPSED WALLCLOCK TIME (SEC) =          0

               CONVERGENCE CHECKS FOR EQUILIBRIUM ITERATION     1


 AVERAGE FORCE                      2.006E+03   TIME AVG. FORCE        574.    
 ALL FORCE     RESIDUALS ARE ZERO
 LARGEST INCREMENT OF DISP.         1.144E-33   AT NODE         12   DOF  1
 LARGEST CORRECTION TO DISP.       -8.384E-45   AT NODE        116   DOF  2
          THE FORCE     EQUILIBRIUM RESPONSE WAS LINEAR IN THIS INCREMENT

 AVERAGE MOMENT                     7.292E-10   TIME AVG. MOMENT       415.    
                                                (FROM FORCE     FIELD)
 LARGEST RESIDUAL MOMENT           -2.507E-11   AT NODE         81   DOF  6
 LARGEST INCREMENT OF ROTATION     -5.029E-18   AT NODE        116   DOF  6
 LARGEST CORRECTION TO ROTATION    -7.220E-18   AT NODE         86   DOF  6
          THERE IS ZERO MOMENT    EVERYWHERE

 COMPATIBILITY ERRORS:
    TYPE                NUMBER EXCEEDING TOLERANCE  MAXIMUM ERROR        IN ELEMENT
 BEAM AXIAL                          0               -1.360E-20                 74
 BEAM SHEAR                          0               -6.322E-18                 89
          TIME INCREMENT MAY NOW INCREASE TO    3.844E-03

 ITERATION SUMMARY FOR THE INCREMENT:   1 TOTAL ITERATIONS, OF WHICH
   0 ARE SEVERE DISCONTINUITY ITERATIONS AND  1 ARE EQUILIBRIUM ITERATIONS.

 TIME INCREMENT COMPLETED  2.563E-03,  FRACTION OF STEP COMPLETED  7.589E-03
 STEP TIME COMPLETED       7.589E-03,  TOTAL TIME COMPLETED        7.589E-03
  
     ASYNCHRONOUS OUTPUT DATABASE FRAME FLUSH STARTED
  


  INCREMENT    11 STARTS. ATTEMPT NUMBER  1, TIME INCREMENT  3.844E-03

  NUMBER OF EQUATIONS =     1806     NUMBER OF FLOATING PT. OPERATIONS =  7.25E+05

  USING THE DIRECT SOLVER WITH   2 PROCESSORS

     CHECK POINT   START OF SOLVER    

     CHECK POINT  END OF SOLVER       

       ELAPSED USER TIME (SEC)      =  0.20000    
       ELAPSED SYSTEM TIME (SEC)    =  0.10000    
       ELAPSED TOTAL CPU TIME (SEC) =  0.30000    
       ELAPSED WALLCLOCK TIME (SEC) =          1

               CONVERGENCE CHECKS FOR EQUILIBRIUM ITERATION     1


 AVERAGE FORCE                      2.987E+03   TIME AVG. FORCE        793.    
 ALL FORCE     RESIDUALS ARE ZERO
 LARGEST INCREMENT OF DISP.         1.716E-33   AT NODE          6   DOF  1
 LARGEST CORRECTION TO DISP.        6.798E-45   AT NODE        116   DOF  2
          THE FORCE     EQUILIBRIUM RESPONSE WAS LINEAR IN THIS INCREMENT

 AVERAGE MOMENT                     7.252E-10   TIME AVG. MOMENT       574.    
                                                (FROM FORCE     FIELD)
 LARGEST RESIDUAL MOMENT           -2.350E-11   AT NODE        125   DOF  6
 LARGEST INCREMENT OF ROTATION     -7.676E-18   AT NODE         89   DOF  6
 LARGEST CORRECTION TO ROTATION    -1.472E-17   AT NODE         89   DOF  6
          THERE IS ZERO MOMENT    EVERYWHERE

 COMPATIBILITY ERRORS:
    TYPE                NUMBER EXCEEDING TOLERANCE  MAXIMUM ERROR        IN ELEMENT
 BEAM AXIAL                          0               -1.360E-20                 25
 BEAM SHEAR                          0                3.841E-18                116
          TIME INCREMENT MAY NOW INCREASE TO    5.767E-03

 ITERATION SUMMARY FOR THE INCREMENT:   1 TOTAL ITERATIONS, OF WHICH
   0 ARE SEVERE DISCONTINUITY ITERATIONS AND  1 ARE EQUILIBRIUM ITERATIONS.

 TIME INCREMENT COMPLETED  3.844E-03,  FRACTION OF STEP COMPLETED  1.143E-02
 STEP TIME COMPLETED       1.143E-02,  TOTAL TIME COMPLETED        1.143E-02


  INCREMENT    12 STARTS. ATTEMPT NUMBER  1, TIME INCREMENT  5.767E-03

  NUMBER OF EQUATIONS =     1806     NUMBER OF FLOATING PT. OPERATIONS =  7.25E+05

  USING THE DIRECT SOLVER WITH   2 PROCESSORS

     CHECK POINT   START OF SOLVER    

     CHECK POINT  END OF SOLVER       

       ELAPSED USER TIME (SEC)      =   0.0000    
       ELAPSED SYSTEM TIME (SEC)    =   0.0000    
       ELAPSED TOTAL CPU TIME (SEC) =   0.0000    
       ELAPSED WALLCLOCK TIME (SEC) =          0

               CONVERGENCE CHECKS FOR EQUILIBRIUM ITERATION     1


 AVERAGE FORCE                      4.494E+03   TIME AVG. FORCE       1.102E+03
 ALL FORCE     RESIDUALS ARE ZERO
 LARGEST INCREMENT OF DISP.         2.575E-33   AT NODE         16   DOF  1
 LARGEST CORRECTION TO DISP.       -5.442E-45   AT NODE         90   DOF  2
          THE FORCE     EQUILIBRIUM RESPONSE WAS LINEAR IN THIS INCREMENT

 AVERAGE MOMENT                     7.214E-10   TIME AVG. MOMENT       793.    
                                                (FROM FORCE     FIELD)
 LARGEST RESIDUAL MOMENT            2.517E-11   AT NODE        128   DOF  6
 LARGEST INCREMENT OF ROTATION      3.083E-18   AT NODE         86   DOF  6
 LARGEST CORRECTION TO ROTATION     1.281E-17   AT NODE         89   DOF  6
          THERE IS ZERO MOMENT    EVERYWHERE

 COMPATIBILITY ERRORS:
    TYPE                NUMBER EXCEEDING TOLERANCE  MAXIMUM ERROR        IN ELEMENT
 BEAM AXIAL                          0                1.394E-20                 99
 BEAM SHEAR                          0                3.656E-18                116
          TIME INCREMENT MAY NOW INCREASE TO    8.650E-03

 ITERATION SUMMARY FOR THE INCREMENT:   1 TOTAL ITERATIONS, OF WHICH
   0 ARE SEVERE DISCONTINUITY ITERATIONS AND  1 ARE EQUILIBRIUM ITERATIONS.

 TIME INCREMENT COMPLETED  5.767E-03,  FRACTION OF STEP COMPLETED  1.720E-02
 STEP TIME COMPLETED       1.720E-02,  TOTAL TIME COMPLETED        1.720E-02


  INCREMENT    13 STARTS. ATTEMPT NUMBER  1, TIME INCREMENT  8.650E-03

  NUMBER OF EQUATIONS =     1806     NUMBER OF FLOATING PT. OPERATIONS =  7.25E+05

  USING THE DIRECT SOLVER WITH   2 PROCESSORS

     CHECK POINT   START OF SOLVER    

     CHECK POINT  END OF SOLVER       

       ELAPSED USER TIME (SEC)      =   0.0000    
       ELAPSED SYSTEM TIME (SEC)    =   0.0000    
       ELAPSED TOTAL CPU TIME (SEC) =   0.0000    
       ELAPSED WALLCLOCK TIME (SEC) =          0

               CONVERGENCE CHECKS FOR EQUILIBRIUM ITERATION     1


 AVERAGE FORCE                      6.754E+03   TIME AVG. FORCE       1.536E+03
 ALL FORCE     RESIDUALS ARE ZERO
 LARGEST INCREMENT OF DISP.         3.862E-33   AT NODE        200   DOF  1
 LARGEST CORRECTION TO DISP.        6.085E-45   AT NODE         90   DOF  2
          THE FORCE     EQUILIBRIUM RESPONSE WAS LINEAR IN THIS INCREMENT

 AVERAGE MOMENT                     7.167E-10   TIME AVG. MOMENT      1.102E+03
                                                (FROM FORCE     FIELD)
 LARGEST RESIDUAL MOMENT            2.144E-11   AT NODE        120   DOF  6
 LARGEST INCREMENT OF ROTATION      4.342E-18   AT NODE         89   DOF  6
 LARGEST CORRECTION TO ROTATION    -6.432E-18   AT NODE         86   DOF  6
          THERE IS ZERO MOMENT    EVERYWHERE

 COMPATIBILITY ERRORS:
    TYPE                NUMBER EXCEEDING TOLERANCE  MAXIMUM ERROR        IN ELEMENT
 BEAM AXIAL                          0                1.360E-20                112
 BEAM SHEAR                          0               -4.544E-18                 88
          TIME INCREMENT MAY NOW INCREASE TO    1.297E-02

 ITERATION SUMMARY FOR THE INCREMENT:   1 TOTAL ITERATIONS, OF WHICH
   0 ARE SEVERE DISCONTINUITY ITERATIONS AND  1 ARE EQUILIBRIUM ITERATIONS.

 TIME INCREMENT COMPLETED  8.650E-03,  FRACTION OF STEP COMPLETED  2.585E-02
 STEP TIME COMPLETED       2.585E-02,  TOTAL TIME COMPLETED        2.585E-02


  INCREMENT    14 STARTS. ATTEMPT NUMBER  1, TIME INCREMENT  1.297E-02

  NUMBER OF EQUATIONS =     1806     NUMBER OF FLOATING PT. OPERATIONS =  7.25E+05

  USING THE DIRECT SOLVER WITH   2 PROCESSORS

     CHECK POINT   START OF SOLVER    

     CHECK POINT  END OF SOLVER       

       ELAPSED USER TIME (SEC)      =  0.10000    
       ELAPSED SYSTEM TIME (SEC)    =  0.10000    
       ELAPSED TOTAL CPU TIME (SEC) =  0.20000    
       ELAPSED WALLCLOCK TIME (SEC) =          0

               CONVERGENCE CHECKS FOR EQUILIBRIUM ITERATION     1


 AVERAGE FORCE                      1.014E+04   TIME AVG. FORCE       2.151E+03
 ALL FORCE     RESIDUALS ARE ZERO
 LARGEST INCREMENT OF DISP.         5.793E-33   AT NODE         11   DOF  1
 LARGEST CORRECTION TO DISP.        3.913E-45   AT NODE         89   DOF  2
          THE FORCE     EQUILIBRIUM RESPONSE WAS LINEAR IN THIS INCREMENT

 AVERAGE MOMENT                     7.159E-10   TIME AVG. MOMENT      1.537E+03
                                                (FROM FORCE     FIELD)
 LARGEST RESIDUAL MOMENT           -2.276E-11   AT NODE         76   DOF  6
 LARGEST INCREMENT OF ROTATION     -4.554E-18   AT NODE         89   DOF  6
 LARGEST CORRECTION TO ROTATION    -1.107E-17   AT NODE         89   DOF  6
          THERE IS ZERO MOMENT    EVERYWHERE

 COMPATIBILITY ERRORS:
    TYPE                NUMBER EXCEEDING TOLERANCE  MAXIMUM ERROR        IN ELEMENT
 BEAM AXIAL                          0               -1.360E-20                 72
 BEAM SHEAR                          0               -2.736E-18                 87
          TIME INCREMENT MAY NOW INCREASE TO    1.946E-02

 ITERATION SUMMARY FOR THE INCREMENT:   1 TOTAL ITERATIONS, OF WHICH
   0 ARE SEVERE DISCONTINUITY ITERATIONS AND  1 ARE EQUILIBRIUM ITERATIONS.

 TIME INCREMENT COMPLETED  1.297E-02,  FRACTION OF STEP COMPLETED  3.882E-02
 STEP TIME COMPLETED       3.882E-02,  TOTAL TIME COMPLETED        3.882E-02


  INCREMENT    15 STARTS. ATTEMPT NUMBER  1, TIME INCREMENT  1.946E-02

  NUMBER OF EQUATIONS =     1806     NUMBER OF FLOATING PT. OPERATIONS =  7.25E+05

  USING THE DIRECT SOLVER WITH   2 PROCESSORS

     CHECK POINT   START OF SOLVER    

     CHECK POINT  END OF SOLVER       

       ELAPSED USER TIME (SEC)      =  0.10000    
       ELAPSED SYSTEM TIME (SEC)    =   0.0000    
       ELAPSED TOTAL CPU TIME (SEC) =  0.10000    
       ELAPSED WALLCLOCK TIME (SEC) =          0

               CONVERGENCE CHECKS FOR EQUILIBRIUM ITERATION     1


 AVERAGE FORCE                      1.523E+04   TIME AVG. FORCE       3.023E+03
 ALL FORCE     RESIDUALS ARE ZERO
 LARGEST INCREMENT OF DISP.         8.690E-33   AT NODE        198   DOF  1
 LARGEST CORRECTION TO DISP.        4.188E-45   AT NODE         88   DOF  2
          THE FORCE     EQUILIBRIUM RESPONSE WAS LINEAR IN THIS INCREMENT

 AVERAGE MOMENT                     7.128E-10   TIME AVG. MOMENT      2.151E+03
                                                (FROM FORCE     FIELD)
 LARGEST RESIDUAL MOMENT            1.944E-11   AT NODE         77   DOF  6
 LARGEST INCREMENT OF ROTATION      2.603E-18   AT NODE         86   DOF  6
 LARGEST CORRECTION TO ROTATION     8.847E-18   AT NODE         89   DOF  6
          THERE IS ZERO MOMENT    EVERYWHERE

 COMPATIBILITY ERRORS:
    TYPE                NUMBER EXCEEDING TOLERANCE  MAXIMUM ERROR        IN ELEMENT
 BEAM AXIAL                          0                1.360E-20                 99
 BEAM SHEAR                          0               -1.999E-18                 88
          TIME INCREMENT MAY NOW INCREASE TO    2.919E-02

 ITERATION SUMMARY FOR THE INCREMENT:   1 TOTAL ITERATIONS, OF WHICH
   0 ARE SEVERE DISCONTINUITY ITERATIONS AND  1 ARE EQUILIBRIUM ITERATIONS.

 TIME INCREMENT COMPLETED  1.946E-02,  FRACTION OF STEP COMPLETED  5.829E-02
 STEP TIME COMPLETED       5.829E-02,  TOTAL TIME COMPLETED        5.829E-02


  INCREMENT    16 STARTS. ATTEMPT NUMBER  1, TIME INCREMENT  2.919E-02

  NUMBER OF EQUATIONS =     1806     NUMBER OF FLOATING PT. OPERATIONS =  7.25E+05

  USING THE DIRECT SOLVER WITH   2 PROCESSORS

     CHECK POINT   START OF SOLVER    

     CHECK POINT  END OF SOLVER       

       ELAPSED USER TIME (SEC)      =  0.10000    
       ELAPSED SYSTEM TIME (SEC)    =   0.0000    
       ELAPSED TOTAL CPU TIME (SEC) =  0.10000    
       ELAPSED WALLCLOCK TIME (SEC) =          0

               CONVERGENCE CHECKS FOR EQUILIBRIUM ITERATION     1


 AVERAGE FORCE                      2.286E+04   TIME AVG. FORCE       4.263E+03
 ALL FORCE     RESIDUALS ARE ZERO
 LARGEST INCREMENT OF DISP.         1.303E-32   AT NODE          7   DOF  1
 LARGEST CORRECTION TO DISP.       -4.277E-45   AT NODE         88   DOF  2
          THE FORCE     EQUILIBRIUM RESPONSE WAS LINEAR IN THIS INCREMENT

 AVERAGE MOMENT                     7.000E-10   TIME AVG. MOMENT      3.023E+03
                                                (FROM FORCE     FIELD)
 LARGEST RESIDUAL MOMENT            2.223E-11   AT NODE        108   DOF  6
 LARGEST INCREMENT OF ROTATION     -2.913E-18   AT NODE        112   DOF  6
 LARGEST CORRECTION TO ROTATION     5.258E-18   AT NODE         81   DOF  6
          THERE IS ZERO MOMENT    EVERYWHERE

 COMPATIBILITY ERRORS:
    TYPE                NUMBER EXCEEDING TOLERANCE  MAXIMUM ERROR        IN ELEMENT
 BEAM AXIAL                          0                1.360E-20                 72
 BEAM SHEAR                          0               -2.149E-18                 89
          TIME INCREMENT MAY NOW INCREASE TO    4.379E-02

 ITERATION SUMMARY FOR THE INCREMENT:   1 TOTAL ITERATIONS, OF WHICH
   0 ARE SEVERE DISCONTINUITY ITERATIONS AND  1 ARE EQUILIBRIUM ITERATIONS.

 TIME INCREMENT COMPLETED  2.919E-02,  FRACTION OF STEP COMPLETED  8.748E-02
 STEP TIME COMPLETED       8.748E-02,  TOTAL TIME COMPLETED        8.748E-02


  INCREMENT    17 STARTS. ATTEMPT NUMBER  1, TIME INCREMENT  4.379E-02

  NUMBER OF EQUATIONS =     1806     NUMBER OF FLOATING PT. OPERATIONS =  7.25E+05

  USING THE DIRECT SOLVER WITH   2 PROCESSORS

     CHECK POINT   START OF SOLVER    

     CHECK POINT  END OF SOLVER       

       ELAPSED USER TIME (SEC)      =  0.10000    
       ELAPSED SYSTEM TIME (SEC)    =   0.0000    
       ELAPSED TOTAL CPU TIME (SEC) =  0.10000    
       ELAPSED WALLCLOCK TIME (SEC) =          0

               CONVERGENCE CHECKS FOR EQUILIBRIUM ITERATION     1


 AVERAGE FORCE                      3.430E+04   TIME AVG. FORCE       6.029E+03
 ALL FORCE     RESIDUALS ARE ZERO
 LARGEST INCREMENT OF DISP.         1.955E-32   AT NODE         15   DOF  1
 LARGEST CORRECTION TO DISP.       -2.888E-45   AT NODE         80   DOF  2
          THE FORCE     EQUILIBRIUM RESPONSE WAS LINEAR IN THIS INCREMENT

 AVERAGE MOMENT                     6.932E-10   TIME AVG. MOMENT      4.263E+03
                                                (FROM FORCE     FIELD)
 LARGEST RESIDUAL MOMENT           -1.591E-11   AT NODE        126   DOF  6
 LARGEST INCREMENT OF ROTATION     -3.226E-18   AT NODE         89   DOF  6
 LARGEST CORRECTION TO ROTATION     4.472E-18   AT NODE        113   DOF  6
          THERE IS ZERO MOMENT    EVERYWHERE

 COMPATIBILITY ERRORS:
    TYPE                NUMBER EXCEEDING TOLERANCE  MAXIMUM ERROR        IN ELEMENT
 BEAM AXIAL                          0               -1.360E-20                 27
 BEAM SHEAR                          0               -2.649E-18                112
          TIME INCREMENT MAY NOW INCREASE TO    6.568E-02

 ITERATION SUMMARY FOR THE INCREMENT:   1 TOTAL ITERATIONS, OF WHICH
   0 ARE SEVERE DISCONTINUITY ITERATIONS AND  1 ARE EQUILIBRIUM ITERATIONS.

 TIME INCREMENT COMPLETED  4.379E-02,  FRACTION OF STEP COMPLETED  0.131    
 STEP TIME COMPLETED       0.131    ,  TOTAL TIME COMPLETED        0.131    


  INCREMENT    18 STARTS. ATTEMPT NUMBER  1, TIME INCREMENT  6.568E-02

  NUMBER OF EQUATIONS =     1806     NUMBER OF FLOATING PT. OPERATIONS =  7.25E+05

  USING THE DIRECT SOLVER WITH   2 PROCESSORS

     CHECK POINT   START OF SOLVER    

     CHECK POINT  END OF SOLVER       

       ELAPSED USER TIME (SEC)      =  0.10000    
       ELAPSED SYSTEM TIME (SEC)    =   0.0000    
       ELAPSED TOTAL CPU TIME (SEC) =  0.10000    
       ELAPSED WALLCLOCK TIME (SEC) =          0

               CONVERGENCE CHECKS FOR EQUILIBRIUM ITERATION     1


 AVERAGE FORCE                      5.146E+04   TIME AVG. FORCE       8.553E+03
 ALL FORCE     RESIDUALS ARE ZERO
 LARGEST INCREMENT OF DISP.         2.933E-32   AT NODE        181   DOF  1
 LARGEST CORRECTION TO DISP.        3.932E-45   AT NODE        113   DOF  2
          THE FORCE     EQUILIBRIUM RESPONSE WAS LINEAR IN THIS INCREMENT

 AVERAGE MOMENT                     6.998E-10   TIME AVG. MOMENT      6.030E+03
                                                (FROM FORCE     FIELD)
 LARGEST RESIDUAL MOMENT            2.494E-11   AT NODE        101   DOF  6
 LARGEST INCREMENT OF ROTATION      3.595E-18   AT NODE         84   DOF  6
 LARGEST CORRECTION TO ROTATION    -4.621E-18   AT NODE         86   DOF  6
          THERE IS ZERO MOMENT    EVERYWHERE

 COMPATIBILITY ERRORS:
    TYPE                NUMBER EXCEEDING TOLERANCE  MAXIMUM ERROR        IN ELEMENT
 BEAM AXIAL                          0                1.632E-20                 80
 BEAM SHEAR                          0               -3.035E-18                 88
          TIME INCREMENT MAY NOW INCREASE TO    9.853E-02

 ITERATION SUMMARY FOR THE INCREMENT:   1 TOTAL ITERATIONS, OF WHICH
   0 ARE SEVERE DISCONTINUITY ITERATIONS AND  1 ARE EQUILIBRIUM ITERATIONS.

 TIME INCREMENT COMPLETED  6.568E-02,  FRACTION OF STEP COMPLETED  0.197    
 STEP TIME COMPLETED       0.197    ,  TOTAL TIME COMPLETED        0.197    


  INCREMENT    19 STARTS. ATTEMPT NUMBER  1, TIME INCREMENT  9.853E-02

  NUMBER OF EQUATIONS =     1806     NUMBER OF FLOATING PT. OPERATIONS =  7.25E+05

  USING THE DIRECT SOLVER WITH   2 PROCESSORS

     CHECK POINT   START OF SOLVER    

     CHECK POINT  END OF SOLVER       

       ELAPSED USER TIME (SEC)      =  0.10000    
       ELAPSED SYSTEM TIME (SEC)    =   0.0000    
       ELAPSED TOTAL CPU TIME (SEC) =  0.10000    
       ELAPSED WALLCLOCK TIME (SEC) =          0

               CONVERGENCE CHECKS FOR EQUILIBRIUM ITERATION     1


 AVERAGE FORCE                      7.720E+04   TIME AVG. FORCE       1.217E+04
 ALL FORCE     RESIDUALS ARE ZERO
 LARGEST INCREMENT OF DISP.         4.399E-32   AT NODE          8   DOF  1
 LARGEST CORRECTION TO DISP.       -4.355E-45   AT NODE        113   DOF  2
          THE FORCE     EQUILIBRIUM RESPONSE WAS LINEAR IN THIS INCREMENT

 AVERAGE MOMENT                     7.073E-10   TIME AVG. MOMENT      8.554E+03
                                                (FROM FORCE     FIELD)
 LARGEST RESIDUAL MOMENT            1.830E-11   AT NODE         81   DOF  6
 LARGEST INCREMENT OF ROTATION     -3.535E-18   AT NODE         89   DOF  6
 LARGEST CORRECTION TO ROTATION     4.214E-18   AT NODE         81   DOF  6
          THERE IS ZERO MOMENT    EVERYWHERE

 COMPATIBILITY ERRORS:
    TYPE                NUMBER EXCEEDING TOLERANCE  MAXIMUM ERROR        IN ELEMENT
 BEAM AXIAL                          0               -2.176E-20                 26
 BEAM SHEAR                          0               -3.278E-18                 80
          TIME INCREMENT MAY NOW INCREASE TO    0.148    

 ITERATION SUMMARY FOR THE INCREMENT:   1 TOTAL ITERATIONS, OF WHICH
   0 ARE SEVERE DISCONTINUITY ITERATIONS AND  1 ARE EQUILIBRIUM ITERATIONS.

 TIME INCREMENT COMPLETED  9.853E-02,  FRACTION OF STEP COMPLETED  0.295    
 STEP TIME COMPLETED       0.295    ,  TOTAL TIME COMPLETED        0.295    


  INCREMENT    20 STARTS. ATTEMPT NUMBER  1, TIME INCREMENT  0.148    

  NUMBER OF EQUATIONS =     1806     NUMBER OF FLOATING PT. OPERATIONS =  7.25E+05

  USING THE DIRECT SOLVER WITH   2 PROCESSORS

     CHECK POINT   START OF SOLVER    

     CHECK POINT  END OF SOLVER       

       ELAPSED USER TIME (SEC)      =   0.0000    
       ELAPSED SYSTEM TIME (SEC)    =   0.0000    
       ELAPSED TOTAL CPU TIME (SEC) =   0.0000    
       ELAPSED WALLCLOCK TIME (SEC) =          0

               CONVERGENCE CHECKS FOR EQUILIBRIUM ITERATION     1


 AVERAGE FORCE                      1.158E+05   TIME AVG. FORCE       1.735E+04
 ALL FORCE     RESIDUALS ARE ZERO
 LARGEST INCREMENT OF DISP.         6.599E-32   AT NODE        182   DOF  1
 LARGEST CORRECTION TO DISP.       -5.029E-45   AT NODE         87   DOF  2
          THE FORCE     EQUILIBRIUM RESPONSE WAS LINEAR IN THIS INCREMENT

 AVERAGE MOMENT                     6.986E-10   TIME AVG. MOMENT      1.217E+04
                                                (FROM FORCE     FIELD)
 LARGEST RESIDUAL MOMENT            1.505E-11   AT NODE        123   DOF  6
 LARGEST INCREMENT OF ROTATION      3.106E-18   AT NODE         89   DOF  6
 LARGEST CORRECTION TO ROTATION     8.409E-18   AT NODE         89   DOF  6
          THERE IS ZERO MOMENT    EVERYWHERE

 COMPATIBILITY ERRORS:
    TYPE                NUMBER EXCEEDING TOLERANCE  MAXIMUM ERROR        IN ELEMENT
 BEAM AXIAL                          0               -2.176E-20                  8
 BEAM SHEAR                          0               -2.280E-18                 83
          TIME INCREMENT MAY NOW INCREASE TO    0.222    

 ITERATION SUMMARY FOR THE INCREMENT:   1 TOTAL ITERATIONS, OF WHICH
   0 ARE SEVERE DISCONTINUITY ITERATIONS AND  1 ARE EQUILIBRIUM ITERATIONS.

 TIME INCREMENT COMPLETED  0.148    ,  FRACTION OF STEP COMPLETED  0.443    
 STEP TIME COMPLETED       0.443    ,  TOTAL TIME COMPLETED        0.443    
  
     ASYNCHRONOUS OUTPUT DATABASE FRAME FLUSH STARTED
  


  INCREMENT    21 STARTS. ATTEMPT NUMBER  1, TIME INCREMENT  0.222    

  NUMBER OF EQUATIONS =     1806     NUMBER OF FLOATING PT. OPERATIONS =  7.25E+05

  USING THE DIRECT SOLVER WITH   2 PROCESSORS

     CHECK POINT   START OF SOLVER    

     CHECK POINT  END OF SOLVER       

       ELAPSED USER TIME (SEC)      =  0.10000    
       ELAPSED SYSTEM TIME (SEC)    =   0.0000    
       ELAPSED TOTAL CPU TIME (SEC) =  0.10000    
       ELAPSED WALLCLOCK TIME (SEC) =          0

               CONVERGENCE CHECKS FOR EQUILIBRIUM ITERATION     1


 AVERAGE FORCE                      1.660E+05   TIME AVG. FORCE       2.443E+04
 ALL FORCE     RESIDUALS ARE ZERO
 LARGEST INCREMENT OF DISP.         9.898E-32   AT NODE          7   DOF  1
 LARGEST CORRECTION TO DISP.       -4.748E-45   AT NODE         88   DOF  2
          THE FORCE     EQUILIBRIUM RESPONSE WAS LINEAR IN THIS INCREMENT

 AVERAGE MOMENT                     7.000E-10   TIME AVG. MOMENT      1.735E+04
                                                (FROM FORCE     FIELD)
 LARGEST RESIDUAL MOMENT           -2.537E-11   AT NODE         92   DOF  6
 LARGEST INCREMENT OF ROTATION     -2.374E-18   AT NODE        121   DOF  6
 LARGEST CORRECTION TO ROTATION    -6.068E-18   AT NODE        112   DOF  6
          THERE IS ZERO MOMENT    EVERYWHERE

 COMPATIBILITY ERRORS:
    TYPE                NUMBER EXCEEDING TOLERANCE  MAXIMUM ERROR        IN ELEMENT
 BEAM AXIAL                          0                4.351E-20                 56
 BEAM SHEAR                          0               -2.543E-18                112
          TIME INCREMENT MAY NOW INCREASE TO    0.333    

 ITERATION SUMMARY FOR THE INCREMENT:   1 TOTAL ITERATIONS, OF WHICH
   0 ARE SEVERE DISCONTINUITY ITERATIONS AND  1 ARE EQUILIBRIUM ITERATIONS.

 TIME INCREMENT COMPLETED  0.222    ,  FRACTION OF STEP COMPLETED  0.665    
 STEP TIME COMPLETED       0.665    ,  TOTAL TIME COMPLETED        0.665    


  INCREMENT    22 STARTS. ATTEMPT NUMBER  1, TIME INCREMENT  0.333    

  NUMBER OF EQUATIONS =     1806     NUMBER OF FLOATING PT. OPERATIONS =  7.25E+05

  USING THE DIRECT SOLVER WITH   2 PROCESSORS

     CHECK POINT   START OF SOLVER    

     CHECK POINT  END OF SOLVER       

       ELAPSED USER TIME (SEC)      =  0.10000    
       ELAPSED SYSTEM TIME (SEC)    =   0.0000    
       ELAPSED TOTAL CPU TIME (SEC) =  0.10000    
       ELAPSED WALLCLOCK TIME (SEC) =          0

               CONVERGENCE CHECKS FOR EQUILIBRIUM ITERATION     1


 AVERAGE FORCE                      2.490E+05   TIME AVG. FORCE       3.464E+04
 ALL FORCE     RESIDUALS ARE ZERO
 LARGEST INCREMENT OF DISP.         1.485E-31   AT NODE        183   DOF  1
 LARGEST CORRECTION TO DISP.        4.880E-45   AT NODE         81   DOF  2
          THE FORCE     EQUILIBRIUM RESPONSE WAS LINEAR IN THIS INCREMENT

 AVERAGE MOMENT                     7.084E-10   TIME AVG. MOMENT      2.443E+04
                                                (FROM FORCE     FIELD)
 LARGEST RESIDUAL MOMENT            2.477E-11   AT NODE        107   DOF  6
 LARGEST INCREMENT OF ROTATION     -2.388E-18   AT NODE         89   DOF  6
 LARGEST CORRECTION TO ROTATION     4.856E-18   AT NODE        121   DOF  6
          THERE IS ZERO MOMENT    EVERYWHERE

 COMPATIBILITY ERRORS:
    TYPE                NUMBER EXCEEDING TOLERANCE  MAXIMUM ERROR        IN ELEMENT
 BEAM AXIAL                          0                6.527E-20                128
 BEAM SHEAR                          0                3.152E-18                 80

 ITERATION SUMMARY FOR THE INCREMENT:   1 TOTAL ITERATIONS, OF WHICH
   0 ARE SEVERE DISCONTINUITY ITERATIONS AND  1 ARE EQUILIBRIUM ITERATIONS.

 TIME INCREMENT COMPLETED  0.333    ,  FRACTION OF STEP COMPLETED  0.997    
 STEP TIME COMPLETED       0.997    ,  TOTAL TIME COMPLETED        0.997    


  INCREMENT    23 STARTS. ATTEMPT NUMBER  1, TIME INCREMENT  2.523E-03

  NUMBER OF EQUATIONS =     1806     NUMBER OF FLOATING PT. OPERATIONS =  7.25E+05

  USING THE DIRECT SOLVER WITH   2 PROCESSORS

     CHECK POINT   START OF SOLVER    

     CHECK POINT  END OF SOLVER       

       ELAPSED USER TIME (SEC)      =   0.0000    
       ELAPSED SYSTEM TIME (SEC)    =   0.0000    
       ELAPSED TOTAL CPU TIME (SEC) =   0.0000    
       ELAPSED WALLCLOCK TIME (SEC) =          0

               CONVERGENCE CHECKS FOR EQUILIBRIUM ITERATION     1


 AVERAGE FORCE                      2.613E+05   TIME AVG. FORCE       4.449E+04
 ALL FORCE     RESIDUALS ARE ZERO
 LARGEST INCREMENT OF DISP.         1.126E-33   AT NODE        179   DOF  1
 LARGEST CORRECTION TO DISP.        1.464E-45   AT NODE         80   DOF  2
          THE FORCE     EQUILIBRIUM RESPONSE WAS LINEAR IN THIS INCREMENT

 AVERAGE MOMENT                     7.088E-10   TIME AVG. MOMENT      3.464E+04
                                                (FROM FORCE     FIELD)
 LARGEST RESIDUAL MOMENT            1.657E-11   AT NODE        126   DOF  6
 LARGEST INCREMENT OF ROTATION     -1.987E-18   AT NODE         89   DOF  6
 LARGEST CORRECTION TO ROTATION    -1.969E-18   AT NODE         89   DOF  6
          THERE IS ZERO MOMENT    EVERYWHERE

 COMPATIBILITY ERRORS:
    TYPE                NUMBER EXCEEDING TOLERANCE  MAXIMUM ERROR        IN ELEMENT
 BEAM AXIAL                          0               -4.351E-20                 83
 BEAM SHEAR                          0                1.411E-18                 80

 ITERATION SUMMARY FOR THE INCREMENT:   1 TOTAL ITERATIONS, OF WHICH
   0 ARE SEVERE DISCONTINUITY ITERATIONS AND  1 ARE EQUILIBRIUM ITERATIONS.

 TIME INCREMENT COMPLETED  2.523E-03,  FRACTION OF STEP COMPLETED   1.00    
 STEP TIME COMPLETED        1.00    ,  TOTAL TIME COMPLETED         1.00    
1

   Abaqus 6.14-4                                  Date 24-Aug-2023   Time 17:20:07
   For use by T_EN NET SAS under license from Dassault Systemes or its subsidiary.

                                                                                 
 FREQUENCY EXTRACTION                                                            
 STEP    2     INCREMENT     1     STEP TIME    0.00    


                        S T E P       2     C A L C U L A T I O N   O F   E I G E N V A L U E S

                                            F O R   N A T U R A L   F R E Q U E N C I E S



          FREQUENCY EXTRACTION                                                            

     THE LANCZOS EIGENSOLVER IS USED FOR THIS ANALYSIS
     Abaqus WILL COMPUTE UNCOUPLED
      STRUCTURAL AND ACOUSTIC MODES
     NUMBER OF EIGENVALUES                     20
     HIGHEST FREQUENCY OF INTEREST                  1.00000E+18
     MAXIMUM NUMBER OF STEPS WITHIN RUN               35
     BLOCK SIZE FOR LANCZOS PROCEDURE                  7
     THE EIGENVECTORS ARE SCALED SO THAT 
      THE LARGEST DISPLACEMENT ENTRY IN EACH VECTOR
      IS UNITY
                              INITIAL STRESS AND DISPLACEMENT EFFECTS ARE
                              INCLUDED IN THE STIFFNESS MATRIX

     THIS IS A LINEAR PERTURBATION STEP.
     ALL LOADS ARE DEFINED AS CHANGE IN LOAD TO THE REFERENCE STATE

          LARGE DISPLACEMENT THEORY WILL BE USED

     EXTRAPOLATION WILL NOT BE USED

     CHARACTERISTIC ELEMENT LENGTH      1.00    

     DETAILS REGARDING ACTUAL SOLUTION WAVEFRONT REQUESTED

     DETAILED OUTPUT OF DIAGNOSTICS TO DATABASE REQUESTED

     PRINT OF INCREMENT NUMBER, TIME, ETC., TO THE MESSAGE FILE EVERY     1  INCREMENTS

 ***NOTE: SHARED MEMORY EXECUTION OF THE ELEMENT CALCULATIONS HAS BEEN TURNED 
          OFF DUE TO THE FOLLOWING FEATURE: SIM ARCHITECTURE IS NOT ACTIVE

     ELEMENT OPERATIONS WILL NOT BE CARRIED OUT IN PARALLEL

     COLLECTING STEP CONSTRAINT INFORMATION FOR OVERCONSTRAINT CHECKS

     CHECK POINT   START OF SOLVER    
  
 COMPUTER PRECISION USED BY ABAQUS      2.22045e-016
 CONVERGENCE CRITERION FOR LANCZOS RUN  1.81899e-012
  
 NUMBER OF EQUATIONS                                                        1806
 NUMBER OF UNRESTRAINED DEGREES OF FREEDOM                                   998
 HEURISTIC SCALE FOR THE FIRST NONZERO EIGENVALUES (PROBLEM SCALE)  1.21537e-002
 INITIAL SHIFT VALUE                                                0.00000e+000
  
 NUMBER OF CPUS USED BY DIRECT SOLVER     2
  
 NUMBER OF NEGATIVE EIGENVALUES   600
 NUMBER OF POSITIVE EIGENVALUES  1206
 NUMBER OF NEGATIVE EIGENVALUES NOT ASSOCIATED WITH LAGRANGE MULTIPLIERS     0
 NUMBER OF LAGRANGE MULTIPLIERS   600
  
 COMPUTATIONAL INTERVAL FOR THE INITIAL LANCZOS RUN
 
 EIGENVALUES NEEDED TO THE RIGHT OF SHIFT VALUE   20
 EIGENVALUES NEEDED TO THE LEFT OF SHIFT VALUE     0
 RIGHT BOUNDARY OF THE COMPUTATIONAL INTERVAL  3.95574e+037
 LEFT BOUNDARY OF THE COMPUTATIONAL INTERVAL  -3.95574e+037
  
 LANCZOS RUN TERMINATED. NUMBER OF STEPS:   11
 ALL THE EIGENVALUES REQUESTED ON THIS LANCZOS RUN ARE FOUND
  
 NUMBER OF ACCEPTED EIGENVALUES   23
  
 ACCEPTED EIGENVALUES
  5.41696e+001 7.89603e+001 3.32419e+002 3.38298e+002 1.14351e+003 1.16786e+003
  2.08344e+003 2.12234e+003 2.21783e+003 2.25730e+003 2.93236e+003 2.99763e+003
  6.17495e+003 6.31995e+003 6.56129e+003 1.16559e+004 1.19579e+004 1.37083e+004
  1.46360e+004 1.47813e+004 1.57983e+004 1.86625e+004 2.08081e+004
  
 FACTORIZATION WITH NEW SHIFT VALUE IS REQUIRED
  
 TRUST INTERVALS AFTER LANCZOS RUN AND COMPRESSION
  
 NUMBER OF TRUST INTERVALS    1
  
 -------------------------------------------------------------------------------------
 | KEY | INSIDE |      INERTIAS     |  SENTINELS  |   OUTSIDE   |  NEED TO FIND      |
 |      ENDS OF INTERVAL     |     ENDS OF SENTINEL      |   COMPUTATIONAL INTERVAL  |
 -------------------------------------------------------------------------------------
 |  +  |      0 |      600      600 |     0     0 |     0     0 |      0    20       |
 |-3.95574e+037 0.00000e+000 |-3.95574e+037 0.00000e+000 |-3.95574e+037 3.95574e+037 |
 -------------------------------------------------------------------------------------
  
 DATA FOR CHOOSING SHIFT
  
 NUMBER OF EIGENVALUES NEEDED IN THE PRIMARY TRUST INTERVAL   20
  
 NUMBER OF MODES FORMING SENTINEL TO THE RIGHT   22
 SHIFT RIGHT        1.52898e+004
  
 NUMBER OF MODES FORMING SENTINEL TO THE LEFT     0
 SHIFT LEFT         0.00000e+000
  
 SHIFTING TO THE RIGHT DIRECTION
 NEW SHIFT          1.52898e+004
  
 NUMBER OF NEGATIVE EIGENVALUES   620
 NUMBER OF POSITIVE EIGENVALUES  1186
 NUMBER OF NEGATIVE EIGENVALUES NOT ASSOCIATED WITH LAGRANGE MULTIPLIERS    20
 NUMBER OF LAGRANGE MULTIPLIERS   600
  
 THE REQUIRED NUMBER OF EIGENVALUES IS FOUND
  
 FINAL TRUST INTERVAL
  
 -------------------------------------------------------------------------------------
 | KEY | INSIDE |      INERTIAS     |  SENTINELS  |   OUTSIDE   |  NEED TO FIND      |
 |      ENDS OF INTERVAL     |     ENDS OF SENTINEL      |   COMPUTATIONAL INTERVAL  |
 -------------------------------------------------------------------------------------
 |  +  |     20 |      600      620 |     0     0 |     0     0 |      0     0       |
 |-3.95574e+037 1.52898e+004 |-3.95574e+037 1.52898e+004 |-3.95574e+037 1.52898e+004 |
 -------------------------------------------------------------------------------------
  
 FIRST EIGENVALUE REQUESTED BY THE USER     1
  
 EIGENVALUES REQUESTED BY THE USER
  5.41696e+001 7.89603e+001 3.32419e+002 3.38298e+002 1.14351e+003 1.16786e+003
  2.08344e+003 2.12234e+003 2.21783e+003 2.25730e+003 2.93236e+003 2.99763e+003
  6.17495e+003 6.31995e+003 6.56129e+003 1.16559e+004 1.19579e+004 1.37083e+004
  1.46360e+004 1.47813e+004
  
 EIGENVALUE EXTRACTION USING THE LANCZOS EIGENSOLVER IS COMPLETE
 NUMBER OF LANCZOS RUNS       :   1
 NUMBER OF LANCZOS STEPS      :  11
 NUMBER OF FACTORIZATIONS     :   2
 NUMBER OF BACK SUBSTITUTIONS :  12

     CHECK POINT  END OF SOLVER       

       ELAPSED USER TIME (SEC)      =  0.40000    
       ELAPSED SYSTEM TIME (SEC)    =   0.0000    
       ELAPSED TOTAL CPU TIME (SEC) =  0.40000    
       ELAPSED WALLCLOCK TIME (SEC) =          1


          THE ANALYSIS HAS BEEN COMPLETED



     ANALYSIS SUMMARY:
     TOTAL OF         24  INCREMENTS
                       0  CUTBACKS IN AUTOMATIC INCREMENTATION
                      23  ITERATIONS INCLUDING CONTACT ITERATIONS IF PRESENT
                      37  PASSES THROUGH THE EQUATION SOLVER OF WHICH 
                      25  INVOLVE MATRIX DECOMPOSITION, INCLUDING
                       0  DECOMPOSITION(S) OF THE MASS MATRIX
                       1  REORDERING OF EQUATIONS TO MINIMIZE WAVEFRONT
                       0  ADDITIONAL RESIDUAL EVALUATIONS FOR LINE SEARCHES
                       0  ADDITIONAL OPERATOR EVALUATIONS FOR LINE SEARCHES
                       5  WARNING MESSAGES DURING USER INPUT PROCESSING
                       0  WARNING MESSAGES DURING ANALYSIS
                       0  ANALYSIS WARNINGS ARE NUMERICAL PROBLEM MESSAGES
                       0  ANALYSIS WARNINGS ARE NEGATIVE EIGENVALUE MESSAGES
                       0  ERROR MESSAGES



     JOB TIME SUMMARY
       USER TIME (SEC)      =   3.7000    
       SYSTEM TIME (SEC)    =  0.90000    
       TOTAL CPU TIME (SEC) =   4.6000    
       WALLCLOCK TIME (SEC) =          4
