1

   Abaqus 6.14-4                                  Date 24-Aug-2023   Time 17:19:55
   For use by T_EN NET SAS under license from Dassault Systemes or its subsidiary.



                         The Abaqus Software is a product of:

                           Dassault Systemes SIMULIA Corp.
                           1301 Atwood Avenue, Suite 101W
                              Johnston, RI 02919, USA
 


                   The Abaqus Software is available only under license
                   from Dassault Systemes or its subsidiary and may be
                   used or reproduced only in accordance with the terms
                   of such license.
 
                          On machine WSS4LX9474 
                          you are authorized to run
                          Abaqus/Standard until 14-Nov-2023

                          Your site id is: 200000000184056 


 
                    For assistance or any other information you may
                    obtain contact information for your local office
                    from the world wide web at:

                      http://www.3ds.com/products/simulia/locations/

 
                * * * * * * * * * * * * * * * * * * * * * * * * * * * * * * 
                *                                                         * 
                *                   *****************                     * 
                *                   *  N O T I C E  *                     * 
                *                   *****************                     * 
                *                                                         * 
                *                                                         * 
                *                    Abaqus 6.14-4                        * 
                *                                                         * 
                *          BUILD ID: 2015_06_11-21.41.13 135079           * 
                *                                                         * 
                *                                                         * 
                *  Please make sure you are using release 6.14 manuals    * 
                *  plus the notes accompanying this release.              * 
                *                                                         * 
                *                                                         * 
                *                                                         * 
                *                                                         * 
                * * * * * * * * * * * * * * * * * * * * * * * * * * * * * * 


 



     PROCESSING PART, INSTANCE, AND ASSEMBLY INFORMATION
   *******************************************************


     END PROCESSING PART, INSTANCE, AND ASSEMBLY INFORMATION
   ***********************************************************




     OPTIONS BEING PROCESSED
   ***************************


  *INCLUDE, INPUT=in_place_nodes.dat

  *** INPUT DATA IS READ FROM FILE in_place_nodes.dat                                                                                                                                                                                                                                             

  *NODE, NSET=PIPE
  *ELEMENT, ELSET=PIPE, TYPE=PIPE31H
  *ELGEN, ELSET=PIPE
  *ELEMENT, TYPE=SPRING1, ELSET=SPR_AX
  *ELEMENT, TYPE=SPRING1, ELSET=SPR_VERT
  *ELEMENT, TYPE=SPRING1, ELSET=SPR_LAT
  *ELEMENT, TYPE=SPRING1, ELSET=SPR_AX
  *ELEMENT, TYPE=SPRING1, ELSET=SPR_VERT
  *ELEMENT, TYPE=SPRING1, ELSET=SPR_LAT
  *ELEMENT, TYPE=SPRING1, ELSET=SPR_AX
  *ELEMENT, TYPE=SPRING1, ELSET=SPR_VERT
  *ELEMENT, TYPE=SPRING1, ELSET=SPR_LAT
  *ELEMENT, TYPE=SPRING1, ELSET=SPR_AX
  *ELEMENT, TYPE=SPRING1, ELSET=SPR_VERT
  *ELEMENT, TYPE=SPRING1, ELSET=SPR_LAT
  *ELEMENT, TYPE=SPRING1, ELSET=SPR_AX
  *ELEMENT, TYPE=SPRING1, ELSET=SPR_VERT
  *ELEMENT, TYPE=SPRING1, ELSET=SPR_LAT
  *ELEMENT, TYPE=SPRING1, ELSET=SPR_AX
  *ELEMENT, TYPE=SPRING1, ELSET=SPR_VERT
  *ELEMENT, TYPE=SPRING1, ELSET=SPR_LAT
  *ELEMENT, TYPE=SPRING1, ELSET=SPR_AX
  *ELEMENT, TYPE=SPRING1, ELSET=SPR_VERT
  *ELEMENT, TYPE=SPRING1, ELSET=SPR_LAT
  *ELEMENT, TYPE=SPRING1, ELSET=SPR_AX
  *ELEMENT, TYPE=SPRING1, ELSET=SPR_VERT
  *ELEMENT, TYPE=SPRING1, ELSET=SPR_LAT
  *ELEMENT, TYPE=SPRING1, ELSET=SPR_AX
  *ELEMENT, TYPE=SPRING1, ELSET=SPR_VERT
  *ELEMENT, TYPE=SPRING1, ELSET=SPR_LAT
  *ELEMENT, TYPE=SPRING1, ELSET=SPR_AX
  *ELEMENT, TYPE=SPRING1, ELSET=SPR_VERT
  *ELEMENT, TYPE=SPRING1, ELSET=SPR_LAT
  *ELEMENT, TYPE=SPRING1, ELSET=SPR_AX
  *ELEMENT, TYPE=SPRING1, ELSET=SPR_VERT
  *ELEMENT, TYPE=SPRING1, ELSET=SPR_LAT
  *ELEMENT, TYPE=SPRING1, ELSET=SPR_AX
  *ELEMENT, TYPE=SPRING1, ELSET=SPR_VERT
  *ELEMENT, TYPE=SPRING1, ELSET=SPR_LAT
  *ELEMENT, TYPE=SPRING1, ELSET=SPR_AX
  *ELEMENT, TYPE=SPRING1, ELSET=SPR_VERT
  *ELEMENT, TYPE=SPRING1, ELSET=SPR_LAT
  *ELEMENT, TYPE=SPRING1, ELSET=SPR_AX
  *ELEMENT, TYPE=SPRING1, ELSET=SPR_VERT
  *ELEMENT, TYPE=SPRING1, ELSET=SPR_LAT
  *ELEMENT, TYPE=SPRING1, ELSET=SPR_AX
  *ELEMENT, TYPE=SPRING1, ELSET=SPR_VERT
  *ELEMENT, TYPE=SPRING1, ELSET=SPR_LAT
  *ELEMENT, TYPE=SPRING1, ELSET=SPR_AX
  *ELEMENT, TYPE=SPRING1, ELSET=SPR_VERT
  *ELEMENT, TYPE=SPRING1, ELSET=SPR_LAT
  *ELEMENT, TYPE=SPRING1, ELSET=SPR_AX
  *ELEMENT, TYPE=SPRING1, ELSET=SPR_VERT
  *ELEMENT, TYPE=SPRING1, ELSET=SPR_LAT
  *ELEMENT, TYPE=SPRING1, ELSET=SPR_AX
  *ELEMENT, TYPE=SPRING1, ELSET=SPR_VERT
  *ELEMENT, TYPE=SPRING1, ELSET=SPR_LAT
  *ELEMENT, TYPE=SPRING1, ELSET=SPR_AX
  *ELEMENT, TYPE=SPRING1, ELSET=SPR_VERT
  *ELEMENT, TYPE=SPRING1, ELSET=SPR_LAT
  *ELEMENT, TYPE=SPRING1, ELSET=SPR_AX
  *ELEMENT, TYPE=SPRING1, ELSET=SPR_VERT
  *ELEMENT, TYPE=SPRING1, ELSET=SPR_LAT
  *ELEMENT, TYPE=SPRING1, ELSET=SPR_AX
  *ELEMENT, TYPE=SPRING1, ELSET=SPR_VERT
  *ELEMENT, TYPE=SPRING1, ELSET=SPR_LAT
  *ELEMENT, TYPE=SPRING1, ELSET=SPR_AX
  *ELEMENT, TYPE=SPRING1, ELSET=SPR_VERT
  *ELEMENT, TYPE=SPRING1, ELSET=SPR_LAT
  *ELEMENT, TYPE=SPRING1, ELSET=SPR_AX
  *ELEMENT, TYPE=SPRING1, ELSET=SPR_VERT
  *ELEMENT, TYPE=SPRING1, ELSET=SPR_LAT
  *ELEMENT, TYPE=SPRING1, ELSET=SPR_AX
  *ELEMENT, TYPE=SPRING1, ELSET=SPR_VERT
  *ELEMENT, TYPE=SPRING1, ELSET=SPR_LAT
  *ELEMENT, TYPE=SPRING1, ELSET=SPR_AX
  *ELEMENT, TYPE=SPRING1, ELSET=SPR_VERT
  *ELEMENT, TYPE=SPRING1, ELSET=SPR_LAT
  *ELEMENT, TYPE=SPRING1, ELSET=SPR_AX
  *ELEMENT, TYPE=SPRING1, ELSET=SPR_VERT
  *ELEMENT, TYPE=SPRING1, ELSET=SPR_LAT
  *ELEMENT, TYPE=SPRING1, ELSET=SPR_AX
  *ELEMENT, TYPE=SPRING1, ELSET=SPR_VERT
  *ELEMENT, TYPE=SPRING1, ELSET=SPR_LAT
  *ELEMENT, TYPE=SPRING1, ELSET=SPR_AX
  *ELEMENT, TYPE=SPRING1, ELSET=SPR_VERT
  *ELEMENT, TYPE=SPRING1, ELSET=SPR_LAT
  *ELEMENT, TYPE=SPRING1, ELSET=SPR_AX
  *ELEMENT, TYPE=SPRING1, ELSET=SPR_VERT
  *ELEMENT, TYPE=SPRING1, ELSET=SPR_LAT
  *ELEMENT, TYPE=SPRING1, ELSET=SPR_AX
  *ELEMENT, TYPE=SPRING1, ELSET=SPR_VERT
  *ELEMENT, TYPE=SPRING1, ELSET=SPR_LAT
  *ELEMENT, TYPE=SPRING1, ELSET=SPR_AX
  *ELEMENT, TYPE=SPRING1, ELSET=SPR_VERT
  *ELEMENT, TYPE=SPRING1, ELSET=SPR_LAT
  *ELEMENT, TYPE=SPRING1, ELSET=SPR_AX
  *ELEMENT, TYPE=SPRING1, ELSET=SPR_VERT
  *ELEMENT, TYPE=SPRING1, ELSET=SPR_LAT
  *ELEMENT, TYPE=SPRING1, ELSET=SPR_AX
  *ELEMENT, TYPE=SPRING1, ELSET=SPR_VERT
  *ELEMENT, TYPE=SPRING1, ELSET=SPR_LAT
  *ELEMENT, TYPE=SPRING1, ELSET=SPR_AX
  *ELEMENT, TYPE=SPRING1, ELSET=SPR_VERT
  *ELEMENT, TYPE=SPRING1, ELSET=SPR_LAT
  *ELEMENT, TYPE=SPRING1, ELSET=SPR_AX
  *ELEMENT, TYPE=SPRING1, ELSET=SPR_VERT
  *ELEMENT, TYPE=SPRING1, ELSET=SPR_LAT
  *ELEMENT, TYPE=SPRING1, ELSET=SPR_AX
  *ELEMENT, TYPE=SPRING1, ELSET=SPR_VERT
  *ELEMENT, TYPE=SPRING1, ELSET=SPR_LAT
  *ELEMENT, TYPE=SPRING1, ELSET=SPR_AX
  *ELEMENT, TYPE=SPRING1, ELSET=SPR_VERT
  *ELEMENT, TYPE=SPRING1, ELSET=SPR_LAT
  *ELEMENT, TYPE=SPRING1, ELSET=SPR_AX
  *ELEMENT, TYPE=SPRING1, ELSET=SPR_VERT
  *ELEMENT, TYPE=SPRING1, ELSET=SPR_LAT
  *ELEMENT, TYPE=SPRING1, ELSET=SPR_AX
  *ELEMENT, TYPE=SPRING1, ELSET=SPR_VERT
  *ELEMENT, TYPE=SPRING1, ELSET=SPR_LAT
  *ELEMENT, TYPE=SPRING1, ELSET=SPR_AX
  *ELEMENT, TYPE=SPRING1, ELSET=SPR_VERT
  *ELEMENT, TYPE=SPRING1, ELSET=SPR_LAT
  *ELEMENT, TYPE=SPRING1, ELSET=SPR_AX
  *ELEMENT, TYPE=SPRING1, ELSET=SPR_VERT
  *ELEMENT, TYPE=SPRING1, ELSET=SPR_LAT
  *ELEMENT, TYPE=SPRING1, ELSET=SPR_AX
  *ELEMENT, TYPE=SPRING1, ELSET=SPR_VERT
  *ELEMENT, TYPE=SPRING1, ELSET=SPR_LAT
  *ELEMENT, TYPE=SPRING1, ELSET=SPR_AX
  *ELEMENT, TYPE=SPRING1, ELSET=SPR_VERT
  *ELEMENT, TYPE=SPRING1, ELSET=SPR_LAT
  *ELEMENT, TYPE=SPRING1, ELSET=SPR_AX
  *ELEMENT, TYPE=SPRING1, ELSET=SPR_VERT
  *ELEMENT, TYPE=SPRING1, ELSET=SPR_LAT
  *ELEMENT, TYPE=SPRING1, ELSET=SPR_AX
  *ELEMENT, TYPE=SPRING1, ELSET=SPR_VERT
  *ELEMENT, TYPE=SPRING1, ELSET=SPR_LAT
  *ELEMENT, TYPE=SPRING1, ELSET=SPR_AX
  *ELEMENT, TYPE=SPRING1, ELSET=SPR_VERT
  *ELEMENT, TYPE=SPRING1, ELSET=SPR_LAT
  *ELEMENT, TYPE=SPRING1, ELSET=SPR_AX
  *ELEMENT, TYPE=SPRING1, ELSET=SPR_VERT
  *ELEMENT, TYPE=SPRING1, ELSET=SPR_LAT
  *ELEMENT, TYPE=SPRING1, ELSET=SPR_AX
  *ELEMENT, TYPE=SPRING1, ELSET=SPR_VERT
  *ELEMENT, TYPE=SPRING1, ELSET=SPR_LAT
  *ELEMENT, TYPE=SPRING1, ELSET=SPR_AX
  *ELEMENT, TYPE=SPRING1, ELSET=SPR_VERT
  *ELEMENT, TYPE=SPRING1, ELSET=SPR_LAT
  *ELEMENT, TYPE=SPRING1, ELSET=SPR_AX
  *ELEMENT, TYPE=SPRING1, ELSET=SPR_VERT
  *ELEMENT, TYPE=SPRING1, ELSET=SPR_LAT
  *ELEMENT, TYPE=SPRING1, ELSET=SPR_AX
  *ELEMENT, TYPE=SPRING1, ELSET=SPR_VERT
  *ELEMENT, TYPE=SPRING1, ELSET=SPR_LAT
  *ELEMENT, TYPE=SPRING1, ELSET=SPR_AX
  *ELEMENT, TYPE=SPRING1, ELSET=SPR_VERT
  *ELEMENT, TYPE=SPRING1, ELSET=SPR_LAT
  *ELEMENT, TYPE=SPRING1, ELSET=SPR_AX
  *ELEMENT, TYPE=SPRING1, ELSET=SPR_VERT
  *ELEMENT, TYPE=SPRING1, ELSET=SPR_LAT
  *ELEMENT, TYPE=SPRING1, ELSET=SPR_AX
  *ELEMENT, TYPE=SPRING1, ELSET=SPR_VERT
  *ELEMENT, TYPE=SPRING1, ELSET=SPR_LAT
  *ELEMENT, TYPE=SPRING1, ELSET=SPR_AX
  *ELEMENT, TYPE=SPRING1, ELSET=SPR_VERT
  *ELEMENT, TYPE=SPRING1, ELSET=SPR_LAT
  *ELEMENT, TYPE=SPRING1, ELSET=SPR_AX
  *ELEMENT, TYPE=SPRING1, ELSET=SPR_VERT
  *ELEMENT, TYPE=SPRING1, ELSET=SPR_LAT
  *ELEMENT, TYPE=SPRING1, ELSET=SPR_AX
  *ELEMENT, TYPE=SPRING1, ELSET=SPR_VERT
  *ELEMENT, TYPE=SPRING1, ELSET=SPR_LAT
  *ELEMENT, TYPE=SPRING1, ELSET=SPR_AX
  *ELEMENT, TYPE=SPRING1, ELSET=SPR_VERT
  *ELEMENT, TYPE=SPRING1, ELSET=SPR_LAT
  *ELEMENT, TYPE=SPRING1, ELSET=SPR_AX
  *ELEMENT, TYPE=SPRING1, ELSET=SPR_VERT
  *ELEMENT, TYPE=SPRING1, ELSET=SPR_LAT
  *ELEMENT, TYPE=SPRING1, ELSET=SPR_AX
  *ELEMENT, TYPE=SPRING1, ELSET=SPR_VERT
  *ELEMENT, TYPE=SPRING1, ELSET=SPR_LAT
  *ELEMENT, TYPE=SPRING1, ELSET=SPR_AX
  *ELEMENT, TYPE=SPRING1, ELSET=SPR_VERT
  *ELEMENT, TYPE=SPRING1, ELSET=SPR_LAT
  *ELEMENT, TYPE=SPRING1, ELSET=SPR_AX
  *ELEMENT, TYPE=SPRING1, ELSET=SPR_VERT
  *ELEMENT, TYPE=SPRING1, ELSET=SPR_LAT
  *ELEMENT, TYPE=SPRING1, ELSET=SPR_AX
  *ELEMENT, TYPE=SPRING1, ELSET=SPR_VERT
  *ELEMENT, TYPE=SPRING1, ELSET=SPR_LAT
  *ELEMENT, TYPE=SPRING1, ELSET=SPR_AX
  *ELEMENT, TYPE=SPRING1, ELSET=SPR_VERT
  *ELEMENT, TYPE=SPRING1, ELSET=SPR_LAT
  *ELEMENT, TYPE=SPRING1, ELSET=SPR_AX
  *ELEMENT, TYPE=SPRING1, ELSET=SPR_VERT
  *ELEMENT, TYPE=SPRING1, ELSET=SPR_LAT
  *ELEMENT, TYPE=SPRING1, ELSET=SPR_AX
  *ELEMENT, TYPE=SPRING1, ELSET=SPR_VERT
  *ELEMENT, TYPE=SPRING1, ELSET=SPR_LAT
  *ELEMENT, TYPE=SPRING1, ELSET=SPR_AX
  *ELEMENT, TYPE=SPRING1, ELSET=SPR_VERT
  *ELEMENT, TYPE=SPRING1, ELSET=SPR_LAT
  *ELEMENT, TYPE=SPRING1, ELSET=SPR_AX
  *ELEMENT, TYPE=SPRING1, ELSET=SPR_VERT
  *ELEMENT, TYPE=SPRING1, ELSET=SPR_LAT
  *ELEMENT, TYPE=SPRING1, ELSET=SPR_AX
  *ELEMENT, TYPE=SPRING1, ELSET=SPR_VERT
  *ELEMENT, TYPE=SPRING1, ELSET=SPR_LAT
  *ELEMENT, TYPE=SPRING1, ELSET=SPR_AX
  *ELEMENT, TYPE=SPRING1, ELSET=SPR_VERT
  *ELEMENT, TYPE=SPRING1, ELSET=SPR_LAT
  *ELEMENT, TYPE=SPRING1, ELSET=SPR_AX
  *ELEMENT, TYPE=SPRING1, ELSET=SPR_VERT
  *ELEMENT, TYPE=SPRING1, ELSET=SPR_LAT
  *ELEMENT, TYPE=SPRING1, ELSET=SPR_AX
  *ELEMENT, TYPE=SPRING1, ELSET=SPR_VERT
  *ELEMENT, TYPE=SPRING1, ELSET=SPR_LAT
  *ELEMENT, TYPE=SPRING1, ELSET=SPR_AX
  *ELEMENT, TYPE=SPRING1, ELSET=SPR_VERT
  *ELEMENT, TYPE=SPRING1, ELSET=SPR_LAT
  *ELEMENT, TYPE=SPRING1, ELSET=SPR_AX
  *ELEMENT, TYPE=SPRING1, ELSET=SPR_VERT
  *ELEMENT, TYPE=SPRING1, ELSET=SPR_LAT
  *ELEMENT, TYPE=SPRING1, ELSET=SPR_AX
  *ELEMENT, TYPE=SPRING1, ELSET=SPR_VERT
  *ELEMENT, TYPE=SPRING1, ELSET=SPR_LAT
  *ELEMENT, TYPE=SPRING1, ELSET=SPR_AX
  *ELEMENT, TYPE=SPRING1, ELSET=SPR_VERT
  *ELEMENT, TYPE=SPRING1, ELSET=SPR_LAT
  *ELEMENT, TYPE=SPRING1, ELSET=SPR_AX
  *ELEMENT, TYPE=SPRING1, ELSET=SPR_VERT
  *ELEMENT, TYPE=SPRING1, ELSET=SPR_LAT
  *ELEMENT, TYPE=SPRING1, ELSET=SPR_AX
  *ELEMENT, TYPE=SPRING1, ELSET=SPR_VERT
  *ELEMENT, TYPE=SPRING1, ELSET=SPR_LAT
  *ELEMENT, TYPE=SPRING1, ELSET=SPR_AX
  *ELEMENT, TYPE=SPRING1, ELSET=SPR_VERT
  *ELEMENT, TYPE=SPRING1, ELSET=SPR_LAT
  *ELEMENT, TYPE=SPRING1, ELSET=SPR_AX
  *ELEMENT, TYPE=SPRING1, ELSET=SPR_VERT
  *ELEMENT, TYPE=SPRING1, ELSET=SPR_LAT
  *ELEMENT, TYPE=SPRING1, ELSET=SPR_AX
  *ELEMENT, TYPE=SPRING1, ELSET=SPR_VERT
  *ELEMENT, TYPE=SPRING1, ELSET=SPR_LAT
  *ELEMENT, TYPE=SPRING1, ELSET=SPR_AX
  *ELEMENT, TYPE=SPRING1, ELSET=SPR_VERT
  *ELEMENT, TYPE=SPRING1, ELSET=SPR_LAT
  *ELEMENT, TYPE=SPRING1, ELSET=SPR_AX
  *ELEMENT, TYPE=SPRING1, ELSET=SPR_VERT
  *ELEMENT, TYPE=SPRING1, ELSET=SPR_LAT
  *ELEMENT, TYPE=SPRING1, ELSET=SPR_AX
  *ELEMENT, TYPE=SPRING1, ELSET=SPR_VERT
  *ELEMENT, TYPE=SPRING1, ELSET=SPR_LAT
  *ELEMENT, TYPE=SPRING1, ELSET=SPR_AX
  *ELEMENT, TYPE=SPRING1, ELSET=SPR_VERT
  *ELEMENT, TYPE=SPRING1, ELSET=SPR_LAT
  *ELEMENT, TYPE=SPRING1, ELSET=SPR_AX
  *ELEMENT, TYPE=SPRING1, ELSET=SPR_VERT
  *ELEMENT, TYPE=SPRING1, ELSET=SPR_LAT
  *ELEMENT, TYPE=SPRING1, ELSET=SPR_AX
  *ELEMENT, TYPE=SPRING1, ELSET=SPR_VERT
  *ELEMENT, TYPE=SPRING1, ELSET=SPR_LAT
  *ELEMENT, TYPE=SPRING1, ELSET=SPR_AX
  *ELEMENT, TYPE=SPRING1, ELSET=SPR_VERT
  *ELEMENT, TYPE=SPRING1, ELSET=SPR_LAT
  *ELEMENT, TYPE=SPRING1, ELSET=SPR_AX
  *ELEMENT, TYPE=SPRING1, ELSET=SPR_VERT
  *ELEMENT, TYPE=SPRING1, ELSET=SPR_LAT
  *ELEMENT, TYPE=SPRING1, ELSET=SPR_AX
  *ELEMENT, TYPE=SPRING1, ELSET=SPR_VERT
  *ELEMENT, TYPE=SPRING1, ELSET=SPR_LAT
  *ELEMENT, TYPE=SPRING1, ELSET=SPR_AX
  *ELEMENT, TYPE=SPRING1, ELSET=SPR_VERT
  *ELEMENT, TYPE=SPRING1, ELSET=SPR_LAT
  *ELEMENT, TYPE=SPRING1, ELSET=SPR_AX
  *ELEMENT, TYPE=SPRING1, ELSET=SPR_VERT
  *ELEMENT, TYPE=SPRING1, ELSET=SPR_LAT
  *ELEMENT, TYPE=SPRING1, ELSET=SPR_AX
  *ELEMENT, TYPE=SPRING1, ELSET=SPR_VERT
  *ELEMENT, TYPE=SPRING1, ELSET=SPR_LAT
  *ELEMENT, TYPE=SPRING1, ELSET=SPR_AX
  *ELEMENT, TYPE=SPRING1, ELSET=SPR_VERT
  *ELEMENT, TYPE=SPRING1, ELSET=SPR_LAT
  *ELEMENT, TYPE=SPRING1, ELSET=SPR_AX
  *ELEMENT, TYPE=SPRING1, ELSET=SPR_VERT
  *ELEMENT, TYPE=SPRING1, ELSET=SPR_LAT
  *ELEMENT, TYPE=SPRING1, ELSET=SPR_AX
  *ELEMENT, TYPE=SPRING1, ELSET=SPR_VERT
  *ELEMENT, TYPE=SPRING1, ELSET=SPR_LAT
  *ELEMENT, TYPE=SPRING1, ELSET=SPR_AX
  *ELEMENT, TYPE=SPRING1, ELSET=SPR_VERT
  *ELEMENT, TYPE=SPRING1, ELSET=SPR_LAT
  *ELEMENT, TYPE=SPRING1, ELSET=SPR_AX
  *ELEMENT, TYPE=SPRING1, ELSET=SPR_VERT
  *ELEMENT, TYPE=SPRING1, ELSET=SPR_LAT
  *ELEMENT, TYPE=SPRING1, ELSET=SPR_AX
  *ELEMENT, TYPE=SPRING1, ELSET=SPR_VERT
  *ELEMENT, TYPE=SPRING1, ELSET=SPR_LAT
  *ELEMENT, TYPE=SPRING1, ELSET=SPR_AX
  *ELEMENT, TYPE=SPRING1, ELSET=SPR_VERT
  *ELEMENT, TYPE=SPRING1, ELSET=SPR_LAT
  *ELEMENT, TYPE=SPRING1, ELSET=SPR_AX
  *ELEMENT, TYPE=SPRING1, ELSET=SPR_VERT
  *ELEMENT, TYPE=SPRING1, ELSET=SPR_LAT
  *ELEMENT, TYPE=SPRING1, ELSET=SPR_AX
  *ELEMENT, TYPE=SPRING1, ELSET=SPR_VERT
  *ELEMENT, TYPE=SPRING1, ELSET=SPR_LAT
  *ELEMENT, TYPE=SPRING1, ELSET=SPR_AX
  *ELEMENT, TYPE=SPRING1, ELSET=SPR_VERT
  *ELEMENT, TYPE=SPRING1, ELSET=SPR_LAT
  *ELEMENT, TYPE=SPRING1, ELSET=SPR_AX
  *ELEMENT, TYPE=SPRING1, ELSET=SPR_VERT
  *ELEMENT, TYPE=SPRING1, ELSET=SPR_LAT
  *ELEMENT, TYPE=SPRING1, ELSET=SPR_AX
  *ELEMENT, TYPE=SPRING1, ELSET=SPR_VERT
  *ELEMENT, TYPE=SPRING1, ELSET=SPR_LAT
  *ELEMENT, TYPE=SPRING1, ELSET=SPR_AX
  *ELEMENT, TYPE=SPRING1, ELSET=SPR_VERT
  *ELEMENT, TYPE=SPRING1, ELSET=SPR_LAT
  *ELEMENT, TYPE=SPRING1, ELSET=SPR_AX
  *ELEMENT, TYPE=SPRING1, ELSET=SPR_VERT
  *ELEMENT, TYPE=SPRING1, ELSET=SPR_LAT
  *ELEMENT, TYPE=SPRING1, ELSET=SPR_AX
  *ELEMENT, TYPE=SPRING1, ELSET=SPR_VERT
  *ELEMENT, TYPE=SPRING1, ELSET=SPR_LAT
  *ELEMENT, TYPE=SPRING1, ELSET=SPR_AX
  *ELEMENT, TYPE=SPRING1, ELSET=SPR_VERT
  *ELEMENT, TYPE=SPRING1, ELSET=SPR_LAT
  *ELEMENT, TYPE=SPRING1, ELSET=SPR_AX
  *ELEMENT, TYPE=SPRING1, ELSET=SPR_VERT
  *ELEMENT, TYPE=SPRING1, ELSET=SPR_LAT
  *ELEMENT, TYPE=SPRING1, ELSET=SPR_AX
  *ELEMENT, TYPE=SPRING1, ELSET=SPR_VERT
  *ELEMENT, TYPE=SPRING1, ELSET=SPR_LAT
  *ELEMENT, TYPE=SPRING1, ELSET=SPR_AX
  *ELEMENT, TYPE=SPRING1, ELSET=SPR_VERT
  *ELEMENT, TYPE=SPRING1, ELSET=SPR_LAT
  *ELEMENT, TYPE=SPRING1, ELSET=SPR_AX
  *ELEMENT, TYPE=SPRING1, ELSET=SPR_VERT
  *ELEMENT, TYPE=SPRING1, ELSET=SPR_LAT
  *ELEMENT, TYPE=SPRING1, ELSET=SPR_AX
  *ELEMENT, TYPE=SPRING1, ELSET=SPR_VERT
  *ELEMENT, TYPE=SPRING1, ELSET=SPR_LAT
  *ELEMENT, TYPE=SPRING1, ELSET=SPR_AX
  *ELEMENT, TYPE=SPRING1, ELSET=SPR_VERT
  *ELEMENT, TYPE=SPRING1, ELSET=SPR_LAT
  *ELEMENT, TYPE=SPRING1, ELSET=SPR_AX
  *ELEMENT, TYPE=SPRING1, ELSET=SPR_VERT
  *ELEMENT, TYPE=SPRING1, ELSET=SPR_LAT
  *ELEMENT, TYPE=SPRING1, ELSET=SPR_AX
  *ELEMENT, TYPE=SPRING1, ELSET=SPR_VERT
  *ELEMENT, TYPE=SPRING1, ELSET=SPR_LAT
  *ELEMENT, TYPE=SPRING1, ELSET=SPR_AX
  *ELEMENT, TYPE=SPRING1, ELSET=SPR_VERT
  *ELEMENT, TYPE=SPRING1, ELSET=SPR_LAT
  *ELEMENT, TYPE=SPRING1, ELSET=SPR_AX
  *ELEMENT, TYPE=SPRING1, ELSET=SPR_VERT
  *ELEMENT, TYPE=SPRING1, ELSET=SPR_LAT
  *ELEMENT, TYPE=SPRING1, ELSET=SPR_AX
  *ELEMENT, TYPE=SPRING1, ELSET=SPR_VERT
  *ELEMENT, TYPE=SPRING1, ELSET=SPR_LAT
  *ELEMENT, TYPE=SPRING1, ELSET=SPR_AX
  *ELEMENT, TYPE=SPRING1, ELSET=SPR_VERT
  *ELEMENT, TYPE=SPRING1, ELSET=SPR_LAT
  *ELEMENT, TYPE=SPRING1, ELSET=SPR_AX
  *ELEMENT, TYPE=SPRING1, ELSET=SPR_VERT
  *ELEMENT, TYPE=SPRING1, ELSET=SPR_LAT
  *ELEMENT, TYPE=SPRING1, ELSET=SPR_AX
  *ELEMENT, TYPE=SPRING1, ELSET=SPR_VERT
  *ELEMENT, TYPE=SPRING1, ELSET=SPR_LAT
  *ELEMENT, TYPE=SPRING1, ELSET=SPR_AX
  *ELEMENT, TYPE=SPRING1, ELSET=SPR_VERT
  *ELEMENT, TYPE=SPRING1, ELSET=SPR_LAT
  *ELEMENT, TYPE=SPRING1, ELSET=SPR_AX
  *ELEMENT, TYPE=SPRING1, ELSET=SPR_VERT
  *ELEMENT, TYPE=SPRING1, ELSET=SPR_LAT
  *ELEMENT, TYPE=SPRING1, ELSET=SPR_AX
  *ELEMENT, TYPE=SPRING1, ELSET=SPR_VERT
  *ELEMENT, TYPE=SPRING1, ELSET=SPR_LAT
  *ELEMENT, TYPE=SPRING1, ELSET=SPR_AX
  *ELEMENT, TYPE=SPRING1, ELSET=SPR_VERT
  *ELEMENT, TYPE=SPRING1, ELSET=SPR_LAT
  *ELEMENT, TYPE=SPRING1, ELSET=SPR_AX
  *ELEMENT, TYPE=SPRING1, ELSET=SPR_VERT
  *ELEMENT, TYPE=SPRING1, ELSET=SPR_LAT
  *ELEMENT, TYPE=SPRING1, ELSET=SPR_AX
  *ELEMENT, TYPE=SPRING1, ELSET=SPR_VERT
  *ELEMENT, TYPE=SPRING1, ELSET=SPR_LAT
  *ELEMENT, TYPE=SPRING1, ELSET=SPR_AX
  *ELEMENT, TYPE=SPRING1, ELSET=SPR_VERT
  *ELEMENT, TYPE=SPRING1, ELSET=SPR_LAT
  *ELEMENT, TYPE=SPRING1, ELSET=SPR_AX
  *ELEMENT, TYPE=SPRING1, ELSET=SPR_VERT
  *ELEMENT, TYPE=SPRING1, ELSET=SPR_LAT
  *ELEMENT, TYPE=SPRING1, ELSET=SPR_AX
  *ELEMENT, TYPE=SPRING1, ELSET=SPR_VERT
  *ELEMENT, TYPE=SPRING1, ELSET=SPR_LAT
  *ELEMENT, TYPE=SPRING1, ELSET=SPR_AX
  *ELEMENT, TYPE=SPRING1, ELSET=SPR_VERT
  *ELEMENT, TYPE=SPRING1, ELSET=SPR_LAT
  *ELEMENT, TYPE=SPRING1, ELSET=SPR_AX
  *ELEMENT, TYPE=SPRING1, ELSET=SPR_VERT
  *ELEMENT, TYPE=SPRING1, ELSET=SPR_LAT
  *ELEMENT, TYPE=SPRING1, ELSET=SPR_AX
  *ELEMENT, TYPE=SPRING1, ELSET=SPR_VERT
  *ELEMENT, TYPE=SPRING1, ELSET=SPR_LAT
  *ELEMENT, TYPE=SPRING1, ELSET=SPR_AX
  *ELEMENT, TYPE=SPRING1, ELSET=SPR_VERT
  *ELEMENT, TYPE=SPRING1, ELSET=SPR_LAT
  *MATERIAL, NAME=STEEL
  *ELASTIC
  *DENSITY
  *SPRING, ELSET=SPR_AX
  *SPRING, ELSET=SPR_VERT
  *SPRING, ELSET=SPR_LAT
  *INITIAL CONDITIONS, TYPE=STRESS
  *INITIAL CONDITIONS, TYPE=STRESS
  *BOUNDARY, OP=NEW
  *BOUNDARY, OP=NEW
  *BOUNDARY, OP=NEW
  *BEAM SECTION,SECT=PIPE,ELSET=PIPE,MATERIAL=STEEL
  *SPRING, ELSET=SPR_AX
  *SPRING, ELSET=SPR_VERT
  *SPRING, ELSET=SPR_LAT
  *OUTPUT, FIELD, FREQ=10, VARIABLE=PRESELECT
  *OUTPUT, HISTORY, FREQ=0, VARIABLE=PRESELECT
  *OUTPUT, FIELD, VARIABLE=ALL, FREQUENCY=999
  *ELEMENT OUTPUT, ELSET=PIPE
  *INITIAL CONDITIONS, TYPE=STRESS
  *OUTPUT, FIELD, FREQ=10, VARIABLE=PRESELECT
  *OUTPUT, HISTORY, FREQ=0, VARIABLE=PRESELECT
  *OUTPUT, FIELD, VARIABLE=ALL, FREQUENCY=999
  *ELEMENT OUTPUT, ELSET=PIPE
  *INITIAL CONDITIONS, TYPE=STRESS
  *INITIAL CONDITIONS, TYPE=STRESS
  *OUTPUT, FIELD, FREQ=10, VARIABLE=PRESELECT
  *OUTPUT, HISTORY, FREQ=0, VARIABLE=PRESELECT
  *OUTPUT, FIELD, VARIABLE=ALL, FREQUENCY=999
  *ELEMENT OUTPUT, ELSET=PIPE
  *AQUA
  *AQUA

 ***WARNING: FLUID VELOCITIES HAVE NOT BEEN SPECIFIED IN THE *AQUA OPTION. THEY 
             ARE SET TO ZERO.
  *STEP, INC=100, NLGEOM
  *OUTPUT, FIELD, FREQ=10, VARIABLE=PRESELECT
  *OUTPUT, HISTORY, FREQ=0, VARIABLE=PRESELECT
  *STEP, NLGEOM, UNSYMM=YES, INC=2000
  *FREQUENCY, EIGENSOLVER=LANCZOS
  *OUTPUT, FIELD, VARIABLE=ALL, FREQUENCY=999
  *STEP, INC=100, NLGEOM
  *STEP, NLGEOM, UNSYMM=YES, INC=2000
  *STEP, INC=100, NLGEOM
  INITIAL SET UP                                                                  
  *STATIC
  *CONTROLS, ANALYSIS=DISCONTINUOUS
  *BOUNDARY, OP=NEW
  *OUTPUT, FIELD, FREQ=10, VARIABLE=PRESELECT
  *ELEMENT OUTPUT, ELSET=PIPE
  *NODE OUTPUT, NSET=PIPE
  *OUTPUT, HISTORY, FREQ=0, VARIABLE=PRESELECT
  *END STEP
  *STEP, NLGEOM, UNSYMM=YES, INC=2000
  FREQUENCY EXTRACTION                                                            
  *FREQUENCY, EIGENSOLVER=LANCZOS
  *FREQUENCY, EIGENSOLVER=LANCZOS
  *BOUNDARY, OP=NEW
  *NODE PRINT, GLOBAL=YES, NSET=PIPE, FREQ=999

 ***WARNING: THE FREQUENCY PARAMETER IS IGNORED IN A *FREQUENCY, *COMPLEX 
             FREQUENCY, OR *BUCKLE STEP. USE THE MODE AND LAST MODE PARAMETERS 
             TO MODIFY OUTPUT REQUESTS.
  *OUTPUT, FIELD, VARIABLE=ALL, FREQUENCY=999

 ***WARNING: THE FREQUENCY PARAMETER IS IGNORED IN A *FREQUENCY, *COMPLEX 
             FREQUENCY, OR *BUCKLE STEP. USE THE MODE LIST PARAMETER TO MODIFY 
             OUTPUT REQUESTS.
  *MODAL FILE
  *END STEP
  *STEP, INC=100, NLGEOM
  *STATIC
  *BOUNDARY, OP=NEW
  *END STEP
  *STEP, NLGEOM, UNSYMM=YES, INC=2000
  *FREQUENCY, EIGENSOLVER=LANCZOS
  *FREQUENCY, EIGENSOLVER=LANCZOS
  *BOUNDARY, OP=NEW
  *END STEP

 ***WARNING: For 42 beam elements either the average curvature about the local 
             1-direction differs by more than 0.1 degrees per unit length as 
             compared to the default curvature or the approximate integrated 
             curvature for the entire beam differs by more than 5 degrees as 
             compared to the approximate integrated default curvature. This may 
             be due to a user-specified normal or due to the nodal averaging 
             routine used by Abaqus. This difference may cause unexpected 
             behavior of the beam and you may want to verify that the beam 
             normals are correct for your problem. The elements have been 
             identified in element set WarnBeamCurvature1.

 ***WARNING: THE UNSYMMETRIC SOLUTION SCHEME MAY NOT BE TURNED ON IN STEP 2



                            P R O B L E M   S I Z E


          NUMBER OF ELEMENTS IS                                   608
          NUMBER OF NODES IS                                      401
          NUMBER OF NODES DEFINED BY THE USER                     201
          NUMBER OF INTERNAL NODES GENERATED BY THE PROGRAM       200
          TOTAL NUMBER OF VARIABLES IN THE MODEL                 2006
          (DEGREES OF FREEDOM PLUS MAX NO. OF ANY LAGRANGE MULTIPLIER
           VARIABLES. INCLUDE *PRINT,SOLVE=YES TO GET THE ACTUAL NUMBER.)



                              END OF USER INPUT PROCESSING



     JOB TIME SUMMARY
       USER TIME (SEC)      =  0.20000    
       SYSTEM TIME (SEC)    =  0.20000    
       TOTAL CPU TIME (SEC) =  0.40000    
       WALLCLOCK TIME (SEC) =          0
1

   Abaqus 6.14-4                                  Date 24-Aug-2023   Time 17:20:04
   For use by T_EN NET SAS under license from Dassault Systemes or its subsidiary.

                                                                                               STEP    1  INCREMENT    1
     INITIAL SET UP                                                                       TIME COMPLETED IN THIS STEP   0.00    


                        S T E P       1     S T A T I C   A N A L Y S I S


          INITIAL SET UP                                                                  

     AUTOMATIC TIME CONTROL WITH -
          A SUGGESTED INITIAL TIME INCREMENT OF                1.000E-04
          AND A TOTAL TIME PERIOD OF                            1.00    
          THE MINIMUM TIME INCREMENT ALLOWED IS                1.000E-09
          THE MAXIMUM TIME INCREMENT ALLOWED IS                 1.00    

     LINEAR EQUATION SOLVER TYPE         DIRECT SPARSE

          LARGE DISPLACEMENT THEORY WILL BE USED



                    TOTAL MASS OF MODEL

                       23630.57    


                    LOCATION OF THE CENTER OF MASS OF THE MODEL

                       100.0000         -9.0083921E-02       0.000000    


                    MOMENTS OF INERTIA ABOUT THE ORIGIN
                           I(XX)               I(YY)               I(ZZ)

                       1597.379          3.1507205E+08      3.1507303E+08


                    PRODUCTS OF INERTIA ABOUT THE ORIGIN
                           I(XY)               I(XZ)               I(YZ)

                       212877.2         -3.3590738E-32     -2.1682011E-13


                    MOMENTS OF INERTIA ABOUT THE CENTER OF MASS
                           I(XX)               I(YY)               I(ZZ)

                       1405.614          7.8766326E+07      7.8767112E+07


                    PRODUCTS OF INERTIA ABOUT THE CENTER OF MASS
                           I(XY)               I(XZ)               I(YZ)

                       3.723697         -3.3590738E-32     -2.1682011E-13
  
                   M E M O R Y   E S T I M A T E
  
 PROCESS      FLOATING PT       MINIMUM MEMORY        MEMORY TO
              OPERATIONS           REQUIRED          MINIMIZE I/O
             PER ITERATION           (MB)               (MB)
  
     1         7.25E+005               17                 31
  
 NOTE:
      (1) SINCE ABAQUS DOES NOT PRE-ALLOCATE MEMORY AND ONLY ALLOCATES MEMORY AS NEEDED DURING THE ANALYSIS,
          THE MEMORY REQUIREMENT PRINTED HERE CAN ONLY BE VIEWED AS A GENERAL GUIDELINE BASED ON THE BEST
          KNOWLEDGE AVAILABLE AT THE BEGINNING OF A STEP BEFORE THE SOLUTION PROCESS HAS BEGUN.
      (2) THE ESTIMATE IS NORMALLY UPDATED AT THE BEGINNING OF EVERY STEP. IT IS THE MAXIMUM VALUE OF THE
          ESTIMATE FROM THE CURRENT STEP TO THE LAST STEP OF THE ANALYSIS, WITH UNSYMMETRIC SOLUTION TAKEN
          INTO ACCOUNT IF APPLICABLE. 
      (3) SINCE THE ESTIMATE IS BASED ON THE ACTIVE DEGREES OF FREEDOM IN THE FIRST ITERATION OF THE 
          CURRENT STEP, THE MEMORY ESTIMATE MIGHT BE SIGNIFICANTLY DIFFERENT THAN ACTUAL USAGE FOR 
          PROBLEMS WITH SUBSTANTIAL CHANGES IN ACTIVE DEGREES OF FREEDOM BETWEEN STEPS (OR EVEN WITHIN
          THE SAME STEP). EXAMPLES ARE: PROBLEMS WITH SIGNIFICANT CONTACT CHANGES, PROBLEMS WITH MODEL
          CHANGE, PROBLEMS WITH BOTH STATIC STEP AND STEADY STATE DYNAMIC PROCEDURES WHERE ACOUSTIC 
          ELEMENTS WILL ONLY BE ACTIVATED IN THE STEADY STATE DYNAMIC STEPS.
      (4) FOR MULTI-PROCESS EXECUTION, THE ESTIMATED VALUE OF FLOATING POINT OPERATIONS FOR EACH PROCESS
          IS BASED ON AN INITIAL SCHEDULING OF OPERATIONS AND MIGHT NOT REFLECT THE ACTUAL FLOATING 
          POINT OPERATIONS COMPLETED ON EACH PROCESS. OPERATIONS ARE DYNAMICALLY BALANCED DURING EXECUTION, 
          SO THE ACTUAL BALANCE OF OPERATIONS BETWEEN PROCESSES IS EXPECTED TO BE BETTER THAN THE ESTIMATE
          PRINTED HERE.
      (5) THE UPPER LIMIT OF MEMORY THAT CAN BE ALLOCATED BY ABAQUS WILL IN GENERAL DEPEND ON THE VALUE OF
          THE "MEMORY" PARAMETER AND THE AMOUNT OF PHYSICAL MEMORY AVAILABLE ON THE MACHINE. PLEASE SEE
          THE "ABAQUS ANALYSIS USER'S MANUAL" FOR MORE DETAILS. THE ACTUAL USAGE OF MEMORY AND OF DISK
          SPACE FOR SCRATCH DATA WILL DEPEND ON THIS UPPER LIMIT AS WELL AS THE MEMORY REQUIRED TO MINIMIZE
          I/O. IF THE MEMORY UPPER LIMIT IS GREATER THAN THE MEMORY REQUIRED TO MINIMIZE I/O, THEN THE ACTUAL
          MEMORY USAGE WILL BE CLOSE TO THE ESTIMATED "MEMORY TO MINIMIZE I/O" VALUE, AND THE SCRATCH DISK
          USAGE WILL BE CLOSE-TO-ZERO; OTHERWISE, THE ACTUAL MEMORY USED WILL BE CLOSE TO THE PREVIOUSLY
          MENTIONED MEMORY LIMIT, AND THE SCRATCH DISK USAGE WILL BE ROUGHLY PROPORTIONAL TO THE DIFFERENCE
          BETWEEN THE ESTIMATED "MEMORY TO MINIMIZE I/O" AND THE MEMORY UPPER LIMIT. HOWEVER ACCURATE
          ESTIMATE OF THE SCRATCH DISK SPACE IS NOT POSSIBLE.
      (6) USING "*RESTART, WRITE" CAN GENERATE A LARGE AMOUNT OF DATA WRITTEN IN THE WORK DIRECTORY.
1

   Abaqus 6.14-4                                  Date 24-Aug-2023   Time 17:20:07
   For use by T_EN NET SAS under license from Dassault Systemes or its subsidiary.

                                                                                               STEP    2  INCREMENT    1
     FREQUENCY EXTRACTION                                                                 TIME COMPLETED IN THIS STEP   0.00    


                        S T E P       2     C A L C U L A T I O N   O F   E I G E N V A L U E S

                                            F O R   N A T U R A L   F R E Q U E N C I E S



          FREQUENCY EXTRACTION                                                            

     THE LANCZOS EIGENSOLVER IS USED FOR THIS ANALYSIS
     Abaqus WILL COMPUTE UNCOUPLED
      STRUCTURAL AND ACOUSTIC MODES
     NUMBER OF EIGENVALUES                     20
     HIGHEST FREQUENCY OF INTEREST                  1.00000E+18
     MAXIMUM NUMBER OF STEPS WITHIN RUN               35
     BLOCK SIZE FOR LANCZOS PROCEDURE                  7
     THE EIGENVECTORS ARE SCALED SO THAT 
      THE LARGEST DISPLACEMENT ENTRY IN EACH VECTOR
      IS UNITY
                              INITIAL STRESS AND DISPLACEMENT EFFECTS ARE
                              INCLUDED IN THE STIFFNESS MATRIX

     THIS IS A LINEAR PERTURBATION STEP.
     ALL LOADS ARE DEFINED AS CHANGE IN LOAD TO THE REFERENCE STATE

          LARGE DISPLACEMENT THEORY WILL BE USED
  
                   M E M O R Y   E S T I M A T E
  
 PROCESS      FLOATING PT       MINIMUM MEMORY        MEMORY TO
              OPERATIONS           REQUIRED          MINIMIZE I/O
             PER ITERATION           (MB)               (MB)
  
     1         7.24E+005               16                 30
  
 NOTE:
      (1) SINCE ABAQUS DOES NOT PRE-ALLOCATE MEMORY AND ONLY ALLOCATES MEMORY AS NEEDED DURING THE ANALYSIS,
          THE MEMORY REQUIREMENT PRINTED HERE CAN ONLY BE VIEWED AS A GENERAL GUIDELINE BASED ON THE BEST
          KNOWLEDGE AVAILABLE AT THE BEGINNING OF A STEP BEFORE THE SOLUTION PROCESS HAS BEGUN.
      (2) THE ESTIMATE IS NORMALLY UPDATED AT THE BEGINNING OF EVERY STEP. IT IS THE MAXIMUM VALUE OF THE
          ESTIMATE FROM THE CURRENT STEP TO THE LAST STEP OF THE ANALYSIS, WITH UNSYMMETRIC SOLUTION TAKEN
          INTO ACCOUNT IF APPLICABLE. 
      (3) SINCE THE ESTIMATE IS BASED ON THE ACTIVE DEGREES OF FREEDOM IN THE FIRST ITERATION OF THE 
          CURRENT STEP, THE MEMORY ESTIMATE MIGHT BE SIGNIFICANTLY DIFFERENT THAN ACTUAL USAGE FOR 
          PROBLEMS WITH SUBSTANTIAL CHANGES IN ACTIVE DEGREES OF FREEDOM BETWEEN STEPS (OR EVEN WITHIN
          THE SAME STEP). EXAMPLES ARE: PROBLEMS WITH SIGNIFICANT CONTACT CHANGES, PROBLEMS WITH MODEL
          CHANGE, PROBLEMS WITH BOTH STATIC STEP AND STEADY STATE DYNAMIC PROCEDURES WHERE ACOUSTIC 
          ELEMENTS WILL ONLY BE ACTIVATED IN THE STEADY STATE DYNAMIC STEPS.
      (4) FOR MULTI-PROCESS EXECUTION, THE ESTIMATED VALUE OF FLOATING POINT OPERATIONS FOR EACH PROCESS
          IS BASED ON AN INITIAL SCHEDULING OF OPERATIONS AND MIGHT NOT REFLECT THE ACTUAL FLOATING 
          POINT OPERATIONS COMPLETED ON EACH PROCESS. OPERATIONS ARE DYNAMICALLY BALANCED DURING EXECUTION, 
          SO THE ACTUAL BALANCE OF OPERATIONS BETWEEN PROCESSES IS EXPECTED TO BE BETTER THAN THE ESTIMATE
          PRINTED HERE.
      (5) THE UPPER LIMIT OF MEMORY THAT CAN BE ALLOCATED BY ABAQUS WILL IN GENERAL DEPEND ON THE VALUE OF
          THE "MEMORY" PARAMETER AND THE AMOUNT OF PHYSICAL MEMORY AVAILABLE ON THE MACHINE. PLEASE SEE
          THE "ABAQUS ANALYSIS USER'S MANUAL" FOR MORE DETAILS. THE ACTUAL USAGE OF MEMORY AND OF DISK
          SPACE FOR SCRATCH DATA WILL DEPEND ON THIS UPPER LIMIT AS WELL AS THE MEMORY REQUIRED TO MINIMIZE
          I/O. IF THE MEMORY UPPER LIMIT IS GREATER THAN THE MEMORY REQUIRED TO MINIMIZE I/O, THEN THE ACTUAL
          MEMORY USAGE WILL BE CLOSE TO THE ESTIMATED "MEMORY TO MINIMIZE I/O" VALUE, AND THE SCRATCH DISK
          USAGE WILL BE CLOSE-TO-ZERO; OTHERWISE, THE ACTUAL MEMORY USED WILL BE CLOSE TO THE PREVIOUSLY
          MENTIONED MEMORY LIMIT, AND THE SCRATCH DISK USAGE WILL BE ROUGHLY PROPORTIONAL TO THE DIFFERENCE
          BETWEEN THE ESTIMATED "MEMORY TO MINIMIZE I/O" AND THE MEMORY UPPER LIMIT. HOWEVER ACCURATE
          ESTIMATE OF THE SCRATCH DISK SPACE IS NOT POSSIBLE.
      (6) USING "*RESTART, WRITE" CAN GENERATE A LARGE AMOUNT OF DATA WRITTEN IN THE WORK DIRECTORY.


                              E I G E N V A L U E    O U T P U T     

 MODE NO      EIGENVALUE              FREQUENCY         GENERALIZED MASS   COMPOSITE MODAL DAMPING            
                             (RAD/TIME)   (CYCLES/TIME)


       1       54.170         7.3600         1.1714         2367.6         0.0000    
       2       78.960         8.8860         1.4142         2382.4         0.0000    
       3       332.42         18.232         2.9018         2577.2         0.0000    
       4       338.30         18.393         2.9273         2562.3         0.0000    
       5       1143.5         33.816         5.3820         2548.9         0.0000    
       6       1167.9         34.174         5.4390         2549.3         0.0000    
       7       2083.4         45.645         7.2646         913.09         0.0000    
       8       2122.3         46.069         7.3321         891.94         0.0000    
       9       2217.8         47.094         7.4952         897.17         0.0000    
      10       2257.3         47.511         7.5616         877.19         0.0000    
      11       2932.4         54.151         8.6184         2528.3         0.0000    
      12       2997.6         54.751         8.7138         2510.8         0.0000    
      13       6174.9         78.581         12.507         2402.4         0.0000    
      14       6319.9         79.498         12.653         2453.1         0.0000    
      15       6561.3         81.002         12.892         14132.         0.0000    
      16       11656.         107.96         17.183         2703.7         0.0000    
      17       11958.         109.35         17.404         2697.4         0.0000    
      18       13708.         117.08         18.634         1027.8         0.0000    
      19       14636.         120.98         19.254         934.82         0.0000    
      20       14781.         121.58         19.350         1007.2         0.0000    


          P A R T I C I P A T I O N   F A C T O R S

 MODE NO    X-COMPONENT    Y-COMPONENT    Z-COMPONENT    X-ROTATION     Y-ROTATION     Z-ROTATION 

       1      1.25037E-16   -1.70097E-15     1.3121       -0.66721        -131.29       -1.69341E-13
       2      3.20579E-02     1.3103        1.64889E-15   -7.98718E-16   -1.89873E-13     131.13    
       3      2.40291E-15    1.81344E-15   -6.31806E-03    3.67966E-04     13.585        3.39004E-14
       4      5.04634E-02   -5.93403E-03    4.53366E-16    7.05183E-17   -1.86205E-13    -13.486    
       5     -1.37433E-16   -1.16230E-14    0.54246       -6.90738E-02    -54.356       -1.15630E-12
       6     -1.22029E-02    0.53620        1.44048E-14   -1.51272E-15   -1.42636E-12     53.735    
       7      7.69173E-16   -2.35693E-15     1.2989        1.35219E-02    -172.62       -7.40433E-13
       8     -1.51376E-15    1.41257E-14     1.2902        1.39259E-02    -87.106        1.82803E-12
       9      1.26210E-02     1.2754       -3.28453E-15    1.23258E-16   -4.83231E-13     171.10    
      10     -4.03724E-02     1.3080       -7.98017E-15   -1.83013E-16    1.01376E-12     89.459    
      11     -1.94383E-15   -3.95358E-17   -2.86242E-03    1.70614E-04     8.2412        2.54538E-13
      12      6.13724E-04   -3.93717E-03    1.73009E-15    1.74929E-16    9.77642E-14    -7.7809    
      13      9.47163E-14   -2.22810E-14    0.36516       -3.76063E-02    -36.243       -2.76735E-12
      14     -0.42296        0.35173        5.05294E-14   -1.77514E-15   -4.69507E-12     34.880    
      15       1.1829        1.63427E-02   -2.29221E-14    3.91947E-16    3.76371E-12     1.7441    
      16      3.90504E-12    2.96293E-13   -8.17831E-04   -2.99744E-05    -6.0526        7.80290E-11
      17     -1.11287E-02   -3.43241E-04   -1.79599E-11    3.99232E-13    6.56617E-09     5.7860    
      18      6.00384E-11    1.25733E-10    3.74161E-03    4.06335E-03     3.6898        1.58749E-08
      19      1.33762E-10    6.89459E-11    1.54195E-02   -4.22544E-03     3.3372        6.33596E-09
      20      1.31210E-02    1.75344E-03   -4.19233E-10    3.13541E-12    9.78197E-08    -4.2143    


                    E F F E C T I V E   M A S S

 MODE NO    X-COMPONENT    Y-COMPONENT    Z-COMPONENT    X-ROTATION     Y-ROTATION     Z-ROTATION 

       1      3.70158E-29    6.85018E-27     4076.1         1054.0        4.08131E+07    6.78942E-23
       2       2.4484         4090.5        6.47727E-27    1.51983E-27    8.58880E-23    4.09620E+07
       3      1.48809E-26    8.47537E-27    0.10288        3.48954E-04    4.75668E+05    2.96185E-24
       4       6.5250        9.02246E-02    5.26651E-28    1.27417E-29    8.88396E-23    4.65996E+05
       5      4.81436E-29    3.44347E-25     750.06         12.161        7.53096E+06    3.40802E-21
       6      0.37961         732.95        5.28963E-25    5.83351E-27    5.18646E-21    7.36093E+06
       7      5.40209E-28    5.07232E-27     1540.5        0.16695        2.72078E+07    5.00593E-22
       8      2.04386E-27    1.77973E-25     1484.7        0.17297        6.76758E+06    2.98059E-21
       9      0.14291         1459.3        9.67877E-27    1.36302E-29    2.09500E-22    2.62647E+07
      10       1.4298         1500.8        5.58621E-26    2.93805E-29    9.01503E-22    7.02013E+06
      11      9.55310E-27    3.95192E-30    2.07154E-02    7.35960E-05    1.71717E+05    1.63808E-22
      12      9.45701E-04    3.89203E-02    7.51532E-27    7.68305E-29    2.39976E-23    1.52009E+05
      13      2.15526E-23    1.19267E-24     320.34         3.3976        3.15570E+06    1.83983E-20
      14       438.85         303.48        6.26324E-24    7.72997E-27    5.40747E-20    2.98451E+06
      15       19774.         3.7745        7.42538E-24    2.17102E-27    2.00190E-19     42991.    
      16      4.12289E-20    2.37352E-22    1.80833E-03    2.42914E-06     99045.        1.64613E-17
      17      0.33408        3.17798E-04    8.70087E-19    4.29936E-22    1.16299E-13     90305.    
      18      3.70466E-18    1.62476E-17    1.43883E-02    1.69691E-02     13992.        2.59006E-13
      19      1.67260E-17    4.44372E-18    0.22226        1.66906E-02     10411.        3.75278E-14
      20      0.17340        3.09659E-03    1.77017E-16    9.90131E-21    9.63734E-12     17888.    

 TOTAL         20224.         8091.0         8172.2         1069.9        8.62459E+07    8.53615E+07




                    E I G E N V A L U E    N U M B E R     1
  
  
  
  
                                       N O D E   O U T P U T
  
  
  
  
   THE FOLLOWING TABLE IS PRINTED FOR NODES BELONGING TO NODE SET PIPE
  
       NODE FOOT-  U1             U2             U3             UR1            UR2            UR3          
            NOTE
  
         2     -4.0422367E-17  7.9619284E-18  3.8555662E-17  0.0000000E+00 -4.0285817E-17 -1.2896469E-17 
         3     -1.6070208E-17 -2.8688287E-17  6.2956250E-17  0.0000000E+00  1.3328479E-17 -4.6176507E-17 
         4     -3.7613610E-17 -6.8213123E-17  2.1691483E-17  0.0000000E+00  1.3595981E-17  2.0702220E-17 
         5      5.6240453E-19 -7.6810220E-18  4.5942579E-17  0.0000000E+00 -2.7708752E-17 -2.4955740E-17 
         6      3.1776731E-17 -9.6872289E-17  6.4677678E-17  0.0000000E+00 -2.6737463E-17  5.5535720E-17 
         7      3.7917012E-17  1.1124225E-16  8.9768129E-17  0.0000000E+00 -2.5434370E-17  1.3554467E-16 
         8      5.9298065E-17  1.3548950E-16  1.0451277E-16  0.0000000E+00  3.1477576E-17 -5.0374376E-17 
         9      4.7931438E-17  4.2400516E-17  2.3009437E-17  0.0000000E+00  6.3083964E-17 -7.7959988E-17 
        10      1.6822955E-17 -1.0056684E-17 -1.0228855E-17  0.0000000E+00  4.9777955E-17 -7.5120355E-17 
        11      2.1583199E-17 -9.3889507E-17 -6.9823791E-17  0.0000000E+00  2.8273450E-17  1.6618944E-17 
        12      1.7972622E-17  1.5389647E-17 -6.5604819E-17  0.0000000E+00 -4.9404129E-18  6.7804258E-17 
        13      3.6288651E-17  2.3095301E-17 -6.9828224E-17  0.0000000E+00  1.1241339E-17  6.1240898E-17 
        14      5.9752198E-17  1.3465061E-16 -7.0628648E-17  0.0000000E+00 -5.3269341E-17  7.1789909E-17 
        15      5.3118870E-17  1.5760436E-16  7.5665562E-17  0.0000000E+00 -3.1057910E-16 -6.1739095E-17 
        16      5.3379811E-17  2.5186750E-17  5.6953171E-16  0.0000000E+00 -7.1472436E-16 -1.7599195E-16 
        17      3.8383064E-17 -1.5048462E-16  1.4921604E-15  0.0000000E+00 -1.0583906E-15 -2.7381108E-17 
        18      2.5510496E-17 -4.0490353E-17  2.6277583E-15  0.0000000E+00 -1.1108526E-15  3.9809097E-17 
        19      6.0994589E-17 -8.7096429E-17  3.5511509E-15  0.0000000E+00 -1.3906219E-16  2.1600325E-17 
        20      3.5038456E-17  4.2334610E-18  2.5049729E-15  0.0000000E+00  3.2134681E-15  1.3086767E-17 
        21      6.1619105E-17 -8.2919453E-17 -3.4768628E-15  0.0000000E+00  1.0139475E-14 -8.2561929E-17 
        22      8.4437763E-17 -1.3315636E-16 -1.8341489E-14  0.0000000E+00  2.0440924E-14  2.1482371E-19 
        23      5.5152373E-17 -8.7651230E-17 -4.4246972E-14  0.0000000E+00  3.0139496E-14  2.2425490E-17 
        24      7.7349709E-17 -8.3210541E-17 -7.6442290E-14  0.0000000E+00  2.6814041E-14  4.8894870E-17 
        25      2.8963440E-17  1.4954955E-17 -9.1670370E-14  0.0000000E+00 -1.3695419E-14  1.1835658E-16 
        26      1.7445456E-17  1.2017382E-16 -3.7310276E-14  0.0000000E+00 -1.2454009E-13 -2.7399631E-18 
        27      4.2702146E-17  1.6506800E-17  1.7362424E-13  0.0000000E+00 -3.3255595E-13 -7.9123540E-17 
        28      3.6317866E-17 -2.8946913E-17  6.4003230E-13  0.0000000E+00 -6.1387961E-13 -4.8248192E-17 
        29      3.7083436E-17 -7.9353183E-17  1.3874993E-12  0.0000000E+00 -8.1203116E-13 -5.0984264E-17 
        30      1.9598585E-17 -1.2505744E-16  2.1840614E-12  0.0000000E+00 -5.3069979E-13 -2.2952177E-17 
        31      1.2683568E-17 -1.2673778E-16  2.2510285E-12  0.0000000E+00  9.3597467E-13  4.4757082E-17 
        32      3.7870716E-17 -4.9362892E-17 -3.4433954E-14  0.0000000E+00  4.4786263E-12  5.7140971E-17 
        33      6.6368002E-18 -2.5280278E-17 -7.1331166E-12  0.0000000E+00  1.0578566E-11 -3.4805074E-17 
        34      4.7372953E-19 -9.0127296E-17 -2.1396119E-11  0.0000000E+00  1.7903944E-11 -2.4668888E-17 
        35     -2.3896755E-17 -6.1290266E-17 -4.2224676E-11  0.0000000E+00  2.0938317E-11 -1.1393302E-17 
        36     -4.7365265E-17 -1.2762946E-16 -6.0474555E-11  0.0000000E+00  7.2104032E-12 -2.8014786E-17 
        37     -5.1457241E-17 -1.0747112E-16 -5.0447027E-11  0.0000000E+00 -4.3648858E-11  4.4356594E-17 
        38     -6.9703636E-17 -4.7080567E-17  3.6770855E-11  0.0000000E+00 -1.5409920E-10  5.0120244E-17 
        39     -1.7774723E-17 -2.8846800E-17  2.6838284E-10  0.0000000E+00 -3.2823725E-10 -6.3380625E-17 
        40     -1.3528924E-17 -1.4732245E-16  6.9423018E-10  0.0000000E+00 -5.0827627E-10 -3.5336936E-17 
        41      2.3583618E-17 -9.1237075E-17  1.2547019E-09  0.0000000E+00 -5.0720629E-10  8.3573827E-17 
        42      4.5140186E-17  3.8058768E-19  1.6144272E-09  0.0000000E+00  5.8252192E-11  5.0232323E-17 
        43      5.3914486E-17  1.3680719E-17  9.4859964E-10  0.0000000E+00  1.7594824E-09  2.5285653E-17 
        44      2.2881749E-17  4.8322464E-17 -2.1818823E-09  0.0000000E+00  5.1221336E-09  7.5050282E-18 
        45      6.4221085E-17  2.7917708E-17 -9.5396701E-09  0.0000000E+00  9.9464876E-09 -2.7357199E-17 
        46      6.7866063E-17  1.8081347E-18 -2.1944299E-08  0.0000000E+00  1.3988791E-08 -7.9834647E-18 
        47      7.6724555E-17  1.0489563E-17 -3.6361670E-08  0.0000000E+00  1.1108737E-08 -1.4111958E-17 
        48      6.2664196E-17 -2.9677655E-17 -4.1085888E-08  0.0000000E+00 -1.0197117E-08 -1.7280841E-17 
        49      8.0113987E-17 -2.1028316E-17 -1.0303684E-08  0.0000000E+00 -6.5431286E-08 -1.7452773E-17 
        50      9.6244271E-17 -7.0480357E-17  9.7244934E-08  0.0000000E+00 -1.6540374E-07 -4.5531184E-17 
        51      9.6904363E-17 -9.0954796E-17  3.2533048E-07  0.0000000E+00 -2.9429090E-07  3.6853948E-17 
        52      6.0375916E-17 -1.4579455E-17  6.7705664E-07  0.0000000E+00 -3.7064293E-07  3.1733412E-17 
        53      5.8076611E-17 -3.7514347E-17  1.0251053E-06  0.0000000E+00 -1.9832796E-07 -1.4396726E-17 
        54      4.6530723E-17 -3.4728851E-17  9.7595661E-07  0.0000000E+00  5.5958552E-07  5.7686649E-19 
        55      5.2007849E-17 -2.7569834E-17 -2.5912374E-07  0.0000000E+00  2.3062687E-06  2.7619151E-17 
        56      6.5611189E-17  1.6767605E-17 -3.8288854E-06  0.0000000E+00  5.2049484E-06  4.3559204E-17 
        57      2.7284354E-17  6.1629420E-17 -1.0733284E-05  0.0000000E+00  8.4886210E-06  5.9474634E-17 
        58     -4.1099291E-18  1.1711206E-16 -2.0399324E-05  0.0000000E+00  9.3354075E-06  5.6654558E-18 
        59      3.3033389E-17  8.0572844E-17 -2.7977168E-05  0.0000000E+00  1.6343132E-06  2.8238199E-17 
        60     -2.9198535E-17  1.6087766E-16 -2.0421275E-05  0.0000000E+00 -2.4604576E-05 -2.0682758E-17 
        61      5.9564480E-17  3.5000770E-17  2.5863142E-05  0.0000000E+00 -7.8711695E-05 -1.1491150E-16 
        62      1.2759002E-16 -4.1621526E-17  1.4161450E-04  0.0000000E+00 -1.6044927E-04 -2.6725385E-17 
        63      1.4389017E-18 -4.2572802E-17  3.4605059E-04  0.0000000E+00 -2.3792775E-04 -8.3513339E-17 
        64     -7.7664670E-17 -2.1183991E-16  6.1228065E-04  0.0000000E+00 -2.8432084E-04 -1.7521161E-16 
        65      7.3748522E-17 -3.6414570E-16  9.0961719E-04  0.0000000E+00 -3.0031327E-04 -8.4950703E-17 
        66      2.2149630E-16 -3.8664860E-16  1.2078932E-03  0.0000000E+00 -2.8627099E-04  2.3074633E-17 
        67      9.2131748E-17 -3.0098461E-16  1.4771507E-03  0.0000000E+00 -2.4222691E-04  1.3504563E-16 
        68      2.0903849E-16 -1.3097997E-16  1.6872866E-03  0.0000000E+00 -1.6786974E-04  1.6383546E-16 
        69      9.5879655E-17  4.0472452E-18  1.8077241E-03  0.0000000E+00 -6.2566382E-05  1.1536464E-16 
        70     -1.0354960E-16  9.0295180E-17  1.8070959E-03  0.0000000E+00  7.4626393E-05  4.2874812E-17 
        71      5.3171133E-17  8.4814140E-17  1.6529292E-03  0.0000000E+00  2.4501952E-04  1.1784973E-17 
        72      4.6032362E-17  1.2236855E-16  1.3112142E-03  0.0000000E+00  4.5041392E-04 -3.4519359E-17 
        73      3.8622076E-17  2.9491414E-17  7.4587168E-04  0.0000000E+00  6.9312691E-04 -2.0484048E-17 
        74     -1.5484329E-16  7.0132666E-17 -8.1746801E-05  0.0000000E+00  9.7601697E-04 -1.3769700E-16 
        75      8.3019062E-17 -2.1739275E-16 -1.2134578E-03  0.0000000E+00  1.3026049E-03 -8.6333127E-17 
        76      3.2444138E-17 -7.9334425E-17 -2.6551162E-03  0.0000000E+00  1.4384244E-03  9.2531634E-17 
        77      3.1218339E-17 -9.1502913E-17 -3.9317638E-03  0.0000000E+00  6.2441374E-04 -2.9130884E-17 
        78      1.6118221E-17 -1.1065669E-16 -3.5273960E-03  0.0000000E+00 -2.4454407E-03  4.0100465E-17 
        79     -8.5762372E-18 -2.2937547E-17  1.5872321E-03  0.0000000E+00 -9.2780548E-03  4.9569464E-17 
        80      1.1152970E-16 -1.9019339E-17  1.5735391E-02  0.0000000E+00 -2.0343331E-02  7.0792734E-19 
        81      3.0877674E-17 -1.9434639E-17  4.2435815E-02  0.0000000E+00 -3.2375400E-02  9.7420368E-17 
        82      9.2678738E-18  1.5059345E-16  8.0157599E-02  0.0000000E+00 -4.2435314E-02  1.8671149E-16 
        83     -5.9886097E-17  3.0646559E-16  1.2649263E-01  0.0000000E+00 -5.0588596E-02  1.8680106E-16 
        84     -6.6402463E-18  5.2850207E-16  1.8062395E-01  0.0000000E+00 -5.7124686E-02  7.2000415E-17 
        85      1.5251146E-16  4.2502845E-16  2.4047645E-01  0.0000000E+00 -6.2068158E-02 -8.2747582E-17 
        86     -1.7634258E-17  3.0314318E-16  3.0451216E-01  0.0000000E+00 -6.5523955E-02 -6.7947907E-17 
        87      1.8920282E-16  3.2160882E-16  3.7129198E-01  0.0000000E+00 -6.7586565E-02 -1.0979373E-16 
        88      1.7205546E-16  6.4861465E-17  4.3946757E-01  0.0000000E+00 -6.8344049E-02 -2.0268537E-16 
        89     -1.9181575E-16 -1.2137823E-16  5.0777635E-01  0.0000000E+00 -6.7880293E-02 -1.7382998E-16 
        90     -1.0274094E-16 -2.8359001E-16  5.7503854E-01  0.0000000E+00 -6.6279799E-02 -2.5955453E-16 
        91     -2.7825152E-16 -5.8938236E-16  6.4016173E-01  0.0000000E+00 -6.3634785E-02 -3.0332869E-16 
        92     -3.4694039E-16 -7.8570042E-16  7.0214933E-01  0.0000000E+00 -6.0037676E-02 -8.6624939E-17 
        93     -1.0084346E-16 -9.0647042E-16  7.6009390E-01  0.0000000E+00 -5.5581803E-02 -7.3349432E-17 
        94     -1.0877271E-16 -1.0151585E-15  8.1318579E-01  0.0000000E+00 -5.0363158E-02 -1.9769152E-16 
        95     -1.1667192E-16 -1.2209657E-15  8.6070765E-01  0.0000000E+00 -4.4469074E-02 -1.5945107E-16 
        96     -1.4536086E-16 -1.3709074E-15  9.0202677E-01  0.0000000E+00 -3.7991780E-02 -1.0455878E-16 
        97     -1.3017123E-16 -1.4381340E-15  9.3660955E-01  0.0000000E+00 -3.1024253E-02 -1.6301510E-16 
        98     -7.7736836E-17 -1.6862250E-15  9.6400757E-01  0.0000000E+00 -2.3650191E-02 -9.6726612E-17 
        99      8.6837013E-17 -1.7131273E-15  9.8385834E-01  0.0000000E+00 -1.5966291E-02  5.6334448E-17 
       100      1.5670430E-16 -1.5432405E-15  9.9590624E-01  0.0000000E+00 -8.0787699E-03  9.6344355E-17 
       101      2.4450279E-18 -1.4792340E-15  1.0000000E+00  0.0000000E+00 -9.5848230E-05 -5.0002550E-17 
       102     -2.9428785E-17 -1.6768142E-15  9.9609995E-01  0.0000000E+00  7.8750546E-03 -3.7215173E-17 
       103      5.3464247E-17 -1.5421189E-15  9.8426728E-01  0.0000000E+00  1.5741530E-02  2.1209130E-17 
       104     -2.5935525E-17 -1.4806080E-15  9.6464979E-01  0.0000000E+00  2.3410392E-02  2.2344842E-17 
       105      1.5670943E-16 -1.4059227E-15  9.3749492E-01  0.0000000E+00  3.0788415E-02  1.5417394E-16 
       106     -1.0965187E-16 -1.2541979E-15  9.0313679E-01  0.0000000E+00  3.7783176E-02  1.5098574E-16 
       107     -2.2814988E-16 -1.1627649E-15  8.6200957E-01  0.0000000E+00  4.4291596E-02  9.9079877E-17 
       108     -8.0276904E-19 -1.0743256E-15  8.1465019E-01  0.0000000E+00  5.0220246E-02  1.4215684E-16 
       109     -2.7170881E-17 -9.0463602E-16  7.6168072E-01  0.0000000E+00  5.5478965E-02  1.7844732E-16 
       110     -9.4211742E-18 -7.3071785E-16  7.0382078E-01  0.0000000E+00  5.9966612E-02  2.1752053E-16 
       111      1.2746560E-16 -4.0381877E-16  6.4189217E-01  0.0000000E+00  6.3586580E-02  1.3606334E-16 
       112     -8.8122976E-17 -2.8317202E-16  5.7680624E-01  0.0000000E+00  6.6255404E-02  8.3462029E-17 
       113      6.9218006E-17 -2.8550536E-16  5.0955405E-01  0.0000000E+00  6.7888864E-02  1.1780988E-16 
       114      9.7353691E-17 -1.8395679E-16  4.4121676E-01  0.0000000E+00  6.8393811E-02 -2.3718660E-17 
       115      1.1594835E-16 -3.5411415E-16  3.7296966E-01  0.0000000E+00  6.7680461E-02 -2.3783073E-16 
       116      5.1920856E-17 -5.7987270E-16  3.0607329E-01  0.0000000E+00  6.5663601E-02 -1.4345178E-16 
       117     -2.4402150E-17 -6.5974709E-16  2.4187533E-01  0.0000000E+00  6.2250649E-02 -7.0737306E-19 
       118      3.1872482E-17 -6.6846732E-16  1.8182184E-01  0.0000000E+00  5.7339540E-02 -7.7654949E-19 
       119     -3.7663600E-17 -5.9635854E-16  1.2746415E-01  0.0000000E+00  5.0821726E-02  1.1590048E-16 
       120     -5.2765078E-17 -4.1497564E-16  8.0465422E-02  0.0000000E+00  4.2582005E-02  2.1911845E-16 
       121      6.3651932E-17 -2.0052892E-16  4.2607836E-02  0.0000000E+00  3.2495865E-02  1.3442567E-16 
       122      1.4973594E-17 -1.2850280E-16  1.5804607E-02  0.0000000E+00  2.0423640E-02  3.6898257E-17 
       123      2.6961256E-17 -1.0843634E-16  1.5988337E-03  0.0000000E+00  9.3170136E-03  5.7174643E-17 
       124     -2.8395035E-17 -3.1058131E-17 -3.5384806E-03  0.0000000E+00  2.4573232E-03  3.2318712E-17 
       125     -3.6013474E-17 -5.2803045E-17 -3.9462926E-03  0.0000000E+00 -6.2543825E-04 -5.5493700E-18 
       126     -3.0769986E-17 -4.5490022E-17 -2.6656693E-03  0.0000000E+00 -1.4432649E-03 -4.2237262E-17 
       127     -1.7972331E-17 -1.2649338E-16 -1.2189898E-03  0.0000000E+00 -1.3071635E-03 -3.1402584E-17 
       128     -6.0993477E-17 -8.8109920E-17 -8.3326238E-05  0.0000000E+00 -9.7943430E-04  1.0408594E-16 
       129     -1.1452469E-17  3.3336253E-17  7.4720713E-04  0.0000000E+00 -6.9559899E-04  2.9832538E-17 
       130      1.2128424E-17 -2.6422702E-17  1.3146052E-03  0.0000000E+00 -4.5209865E-04 -3.7529055E-17 
       131     -1.0962513E-16 -2.3385120E-17  1.6576570E-03  0.0000000E+00 -2.4605402E-04 -7.9527243E-19 
       132     -1.1146734E-16 -2.9801501E-17  1.8125779E-03  0.0000000E+00 -7.5141640E-05  3.0775767E-17 
       133      5.1436657E-17  4.6286541E-17  1.8134983E-03  0.0000000E+00  6.2475147E-05  9.6069431E-17 
       134      2.8713476E-17  1.3202000E-16  1.6929615E-03  0.0000000E+00  1.6813954E-04 -3.3568915E-17 
       135      4.2383536E-17 -1.0402231E-17  1.4823945E-03  0.0000000E+00  2.4280230E-04 -6.7306650E-17 
       136      1.5398097E-16  2.2119343E-17  1.2124255E-03  0.0000000E+00  2.8710305E-04  4.4108249E-17 
       137      2.0036979E-16  5.3663386E-17  9.1321021E-04  0.0000000E+00  3.0132246E-04 -3.1015644E-17 
       138      8.0251015E-17 -2.5746332E-17  6.1481584E-04  0.0000000E+00  2.8537983E-04  3.9605390E-17 
       139      8.7727794E-17  1.2657629E-16  3.4755230E-04  0.0000000E+00  2.3887678E-04  1.1010675E-16 
       140      1.0372399E-16  1.4351730E-16  1.4228176E-04  0.0000000E+00  1.6110784E-04 -9.6170072E-17 
       141      1.0155037E-16 -3.5582315E-17  2.6056203E-05  0.0000000E+00  7.9028980E-05 -1.2456263E-16 
       142      1.0235094E-16 -7.4045568E-17 -2.0408424E-05  0.0000000E+00  2.4699422E-05 -1.0107809E-17 
       143      3.7573360E-17 -7.8887921E-17 -2.8044591E-05  0.0000000E+00 -1.4633545E-06 -7.1838983E-18 
       144      6.0623664E-17 -9.6716826E-17 -2.0537327E-05  0.0000000E+00 -9.3217254E-06  5.8044557E-18 
       145      6.6670504E-17 -6.0280854E-17 -1.0845130E-05  0.0000000E+00 -8.5300264E-06  7.8866850E-17 
       146      1.6820662E-17  4.6063134E-17 -3.8927592E-06  0.0000000E+00 -5.2494386E-06  6.7070897E-17 
       147     -2.6942741E-17  8.5486583E-17 -2.8496581E-07  0.0000000E+00 -2.3360110E-06  8.9402923E-17 
       148     -2.1572946E-17  2.0727032E-16  9.7147814E-07  0.0000000E+00 -5.7404636E-07 -9.8531642E-18 
       149      1.9229603E-17  8.4029293E-17  1.0290594E-06  0.0000000E+00  1.9390950E-07 -2.7940930E-17 
       150      2.3061350E-17  1.6489237E-16  6.8229191E-07  0.0000000E+00  3.7101430E-07  1.8407712E-17 
       151      4.8296700E-17  1.0574409E-16  3.2910890E-07  0.0000000E+00  2.9605547E-07 -4.8002893E-18 
       152      4.5246075E-17  1.6910253E-16  9.9214426E-08  0.0000000E+00  1.6698381E-07  1.1020837E-17 
       153      5.0738629E-17  1.2466049E-16 -9.6127060E-09  0.0000000E+00  6.6391375E-08 -1.7229327E-17 
       154      3.3251333E-17  1.3949500E-16 -4.1050106E-08  0.0000000E+00  1.0618300E-08  1.4959632E-18 
       155      4.4822326E-17  1.1358147E-16 -3.6549274E-08  0.0000000E+00 -1.1009507E-08 -7.8329338E-17 
       156      4.1130704E-17 -8.3213815E-18 -2.2137574E-08  0.0000000E+00 -1.4028230E-08 -5.6431740E-17 
       157      1.8862324E-17  1.8855781E-17 -9.6664099E-09  0.0000000E+00 -1.0016680E-08  2.6112641E-17 
       158      1.0370578E-17  2.1838395E-17 -2.2424054E-09  0.0000000E+00 -5.1773493E-09 -4.1733567E-17 
       159      2.4109353E-17 -4.1757617E-17  9.3072103E-10  0.0000000E+00 -1.7903154E-09  1.3719490E-17 
       160      2.4438380E-17  3.6963597E-17  1.6165125E-09  0.0000000E+00 -7.0347825E-11  3.8732199E-17 
       161      6.6124692E-18  2.1351761E-17  1.2624276E-09  0.0000000E+00  5.0538330E-10 -7.2814928E-17 
       162      5.0496667E-18 -8.4135636E-17  7.0101989E-10  0.0000000E+00  5.1038552E-10 -4.2398535E-17 
       163      6.9782695E-18 -3.8572536E-17  2.7246127E-10  0.0000000E+00  3.3085681E-10  1.1725956E-16 
       164      5.1847810E-18  1.1073634E-16  3.8534865E-11  0.0000000E+00  1.5595072E-10  6.6644065E-17 
       165      4.5254499E-18  8.2472317E-17 -5.0049094E-11  0.0000000E+00  4.4597328E-11 -3.4192217E-17 
       166      1.4413837E-17  6.6354065E-17 -6.0653845E-11  0.0000000E+00 -6.8872289E-12  9.6933436E-18 
       167     -9.5353816E-18  8.4470716E-17 -4.2525052E-11  0.0000000E+00 -2.0929177E-11 -8.1879296E-17 
       168     -7.0241716E-18 -8.3861339E-17 -2.1628785E-11  0.0000000E+00 -1.7998585E-11 -8.9059055E-17 
       169     -3.9903342E-17 -8.9827428E-17 -7.2615910E-12  0.0000000E+00 -1.0672877E-11 -4.4793801E-17 
       170     -1.2007433E-17 -1.6925079E-16 -8.4028396E-14  0.0000000E+00 -4.5393040E-12  1.7447711E-18 
       171     -3.7633375E-17 -7.7448458E-17  2.2441494E-12  0.0000000E+00 -9.6447527E-13  5.6467433E-17 
       172     -4.8532939E-17 -8.6086895E-17  2.1934421E-12  0.0000000E+00  5.2252768E-13 -4.4575141E-17 
       173     -7.6808056E-17 -1.4527764E-16  1.3987764E-12  0.0000000E+00  8.1333290E-13 -3.9665816E-17 
       174     -5.3431558E-17 -1.4068947E-16  6.4796723E-13  0.0000000E+00  6.1776830E-13  6.7833527E-17 
       175     -6.1584170E-17 -2.5879221E-17  1.7763628E-13  0.0000000E+00  3.3594610E-13  1.4094629E-17 
       176     -6.3206479E-17 -1.0309330E-16 -3.5994982E-14  0.0000000E+00  1.2645308E-13  1.6852779E-17 
       177     -4.7639725E-17  3.3623164E-17 -9.1560273E-14  0.0000000E+00  1.4568057E-14  1.9871323E-16 
       178     -4.6837109E-17  2.4762133E-16 -7.6956580E-14  0.0000000E+00 -2.6479301E-14  8.1937321E-17 
       179     -4.0741269E-17  1.8104159E-16 -4.4835087E-14  0.0000000E+00 -3.0231713E-14 -1.3882321E-16 
       180     -6.5961958E-17  1.5188151E-17 -1.8723915E-14  0.0000000E+00 -2.0623786E-14 -8.5065388E-17 
       181     -6.8729914E-17  1.0434126E-18 -3.7085282E-15  0.0000000E+00 -1.0288099E-14 -8.0359242E-17 
       182     -4.4109269E-17 -1.2575767E-16  2.4302630E-15  0.0000000E+00 -3.3413713E-15  4.7337903E-18 
       183     -3.3709214E-18 -2.7411538E-19  3.5591934E-15  0.0000000E+00  9.8107302E-17  2.4114198E-17 
       184      1.1065589E-18 -7.2888930E-17  2.6296107E-15  0.0000000E+00  1.1040895E-15  6.8331631E-17 
       185      9.4312194E-18  1.3648020E-16  1.5346101E-15  0.0000000E+00  9.9717292E-16  1.5180039E-16 
       186     -1.1627198E-18  1.9025099E-16  6.5841362E-16  0.0000000E+00  7.0759056E-16 -3.0005283E-17 
       187     -5.6067373E-18  8.6076222E-17  1.3705058E-16  0.0000000E+00  3.2096766E-16 -1.1227015E-16 
       188     -3.4755720E-19 -2.5912447E-17 -1.0014712E-18  0.0000000E+00  3.4987215E-17 -1.0577622E-16 
       189     -1.4339266E-17 -1.0507282E-16  2.7389970E-17  0.0000000E+00 -4.5203006E-17 -2.5843522E-17 
       190     -1.4299459E-17 -8.1929103E-17  6.8059392E-17  0.0000000E+00 -1.4532208E-17  4.6964997E-17 
       191     -1.1119231E-17 -1.8713754E-17  6.3507356E-17  0.0000000E+00 -2.7781610E-17  4.7366929E-17 
       192     -9.8874903E-18 -9.5454301E-18  1.2068154E-16  0.0000000E+00 -1.2191734E-17 -7.9924100E-17 
       193     -5.9285186E-18 -1.4347716E-16  7.2144254E-17  0.0000000E+00  9.4232911E-17  1.0538043E-17 
       194      2.4831675E-17 -8.8222377E-18 -3.8071677E-17  0.0000000E+00  1.6138498E-17  1.3505879E-18 
       195      3.4954492E-17 -1.4543553E-16  3.4399759E-17  0.0000000E+00  9.0278300E-18 -5.1289312E-17 
       196      2.4093249E-17 -7.8427005E-17 -6.1192707E-17  0.0000000E+00  5.2103549E-17  9.8079767E-17 
       197      5.5675659E-18  1.4450050E-18 -4.4026465E-17  0.0000000E+00 -3.3251364E-17 -6.4220912E-18 
       198      1.2973888E-18 -7.1411037E-17 -4.9617941E-18  0.0000000E+00 -2.5979473E-17 -1.8900407E-17 
       199      1.0034116E-18 -2.6329570E-17  1.4737941E-17  0.0000000E+00 -6.0737914E-17  4.1063646E-18 
       200      6.1600679E-18 -6.4810979E-17  1.0453187E-16  0.0000000E+00  6.5525872E-18  1.3253981E-17 
       201      2.0562355E-17  0.0000000E+00  0.0000000E+00  0.0000000E+00  1.1799428E-16  7.8776521E-17 

 MAXIMUM         2.2150E-16  5.2850E-16   1.000       0.000      6.8394E-02  2.1912E-16
 AT NODE                66          84         101           1         114         120

 MINIMUM        -3.4694E-16 -1.7131E-15 -3.9463E-03   0.000     -6.8344E-02 -3.0333E-16
 AT NODE                92          99         125           1          88          91




                    E I G E N V A L U E    N U M B E R     2
  
  
  
  
                                       N O D E   O U T P U T
  
  
  
  
   THE FOLLOWING TABLE IS PRINTED FOR NODES BELONGING TO NODE SET PIPE
  
       NODE FOOT-  U1             U2             U3             UR1            UR2            UR3          
            NOTE
  
         2     -1.7800284E-04 -2.5340083E-11 -1.6089005E-17  0.0000000E+00 -1.8714053E-17 -4.0695285E-11 
         3     -3.5607159E-04 -7.5313409E-11  2.8815280E-17  0.0000000E+00 -1.9282589E-17 -4.4986093E-11 
         4     -5.3427221E-04 -1.0487414E-10  9.0931095E-18  0.0000000E+00  3.2048120E-17  1.3251579E-11 
         5     -7.1267070E-04 -3.0424618E-11 -1.8768245E-17  0.0000000E+00  4.3057556E-18  1.8162701E-10 
         6     -8.9133310E-04  2.8299808E-10  4.3644990E-18  0.0000000E+00 -2.3201435E-17  4.9747707E-10 
         7     -1.0703256E-03  9.7885206E-10  2.8552712E-17  0.0000000E+00 -2.8230996E-17  8.9912865E-10 
         8     -1.2498939E-03  2.0427624E-09  5.2597445E-17  0.0000000E+00 -1.5165010E-17  1.0633917E-09 
         9     -1.4297456E-03  2.9361340E-09  6.2128018E-17  0.0000000E+00 -5.7288330E-18  2.0612593E-10 
        10     -1.6101269E-03  2.0665749E-09  7.1164317E-17  0.0000000E+00 -7.0902719E-17 -2.9780545E-09 
        11     -1.7909234E-03 -2.2930710E-09  1.8254403E-16  0.0000000E+00 -5.8137644E-18 -2.9212093E-09 
        12     -1.9725642E-03 -3.0389418E-09  7.5215004E-17  0.0000000E+00  6.3752096E-17  4.3632675E-10 
        13     -2.1549355E-03 -1.7842461E-09  8.2209155E-17  0.0000000E+00 -1.4413237E-17  1.6143789E-09 
        14     -2.3381048E-03  3.7901469E-11  9.9036909E-17  0.0000000E+00 -1.0335215E-17  1.8824100E-09 
        15     -2.5221400E-03  1.9050449E-09  8.6183611E-17  0.0000000E+00  3.2714357E-17  1.6980028E-09 
        16     -2.7071093E-03  3.2736376E-09  3.9209335E-17  0.0000000E+00  4.4421314E-17  5.5352560E-10 
        17     -2.8930811E-03  2.6245620E-09 -9.1767846E-19  0.0000000E+00  4.7617112E-17 -2.9124405E-09 
        18     -3.0801243E-03 -1.8234454E-09 -4.6766246E-17  0.0000000E+00  3.1372092E-17 -3.1390770E-09 
        19     -3.2683081E-03 -2.9610642E-09 -6.5971955E-17  0.0000000E+00  1.1135678E-19 -3.3766881E-10 
        20     -3.4577024E-03 -2.9713661E-09 -4.5548202E-17  0.0000000E+00 -2.3105106E-17 -3.6723555E-10 
        21     -3.6483771E-03 -3.9106358E-09 -2.9946823E-17  0.0000000E+00  3.9012239E-18 -1.6853478E-09 
        22     -3.8404030E-03 -6.2611724E-09 -5.1757771E-17  0.0000000E+00  3.2454478E-17 -2.5189103E-09 
        23     -4.0338511E-03 -8.4277196E-09 -7.9760148E-17  0.0000000E+00 -1.4950397E-17 -2.3305684E-10 
        24     -4.2287931E-03 -7.0009825E-09 -2.3253467E-17  0.0000000E+00 -7.8171715E-17  1.5810225E-09 
        25     -4.4253011E-03 -6.3141774E-09  6.4982098E-17  0.0000000E+00 -5.1816960E-17 -5.4091103E-10 
        26     -4.6234480E-03 -8.5812789E-09  7.5125279E-17  0.0000000E+00  3.9801625E-17 -3.2847699E-09 
        27     -4.8233072E-03 -1.2765943E-08  3.0296324E-18  0.0000000E+00  2.0014558E-17 -2.9389120E-09 
        28     -5.0249525E-03 -1.4925908E-08  3.9094148E-17  0.0000000E+00 -1.6735817E-17 -1.7763108E-09 
        29     -5.2284588E-03 -1.7107561E-08  2.0375623E-17  0.0000000E+00  3.4304733E-17 -4.8607990E-10 
        30     -5.4339014E-03 -1.6863802E-08 -1.5187845E-17  0.0000000E+00 -6.1216828E-17  1.1492326E-09 
        31     -5.6413563E-03 -1.5883725E-08  1.3542862E-16  0.0000000E+00 -9.1996536E-17  3.7673619E-09 
        32     -5.8509004E-03 -1.0611541E-08  1.3034213E-16  0.0000000E+00  6.7015547E-17  7.4522781E-09 
        33     -6.0626113E-03 -2.7580700E-09  2.3168698E-17  0.0000000E+00  1.0465177E-16  1.0574855E-08 
        34     -6.2765674E-03  9.2164193E-09 -6.6126253E-17  0.0000000E+00  8.5429273E-17  1.5979366E-08 
        35     -6.4928480E-03  2.7475630E-08 -1.3002315E-16  0.0000000E+00 -3.2866372E-17  2.1359510E-08 
        36     -6.7115330E-03  5.0101869E-08 -1.8249932E-17  0.0000000E+00 -7.3127678E-17  2.4868432E-08 
        37     -6.9327036E-03  7.6765614E-08  6.2463428E-18  0.0000000E+00 -5.2643837E-17  3.0955481E-08 
        38     -7.1564416E-03  1.1255619E-07  8.3752844E-17  0.0000000E+00 -1.8530159E-17  4.0282321E-08 
        39     -7.3828299E-03  1.5797862E-07  3.9898396E-17  0.0000000E+00  5.5076103E-17  4.6728472E-08 
        40     -7.6119523E-03  2.0848034E-07 -1.5730464E-17  0.0000000E+00  5.9716086E-17  5.0177032E-08 
        41     -7.8438937E-03  2.6386669E-07 -8.4472454E-17  0.0000000E+00  5.8247549E-17  5.3582710E-08 
        42     -8.0787399E-03  3.2356219E-07 -1.3549643E-16  0.0000000E+00  2.5979699E-17  5.2619911E-08 
        43     -8.3165780E-03  3.8021862E-07 -1.3760618E-16  0.0000000E+00 -1.4794793E-17  4.3106230E-08 
        44     -8.5574960E-03  4.2503610E-07 -1.2559917E-16  0.0000000E+00  2.1142560E-17  2.1676869E-08 
        45     -8.8015832E-03  4.4483585E-07 -1.6849439E-16  0.0000000E+00  7.3282352E-18 -9.0420973E-09 
        46     -9.0489299E-03  4.3243467E-07 -1.2636658E-16  0.0000000E+00 -6.4032666E-17 -5.7952217E-08 
        47     -9.2996277E-03  3.5945656E-07 -5.0743283E-17  0.0000000E+00 -4.9604186E-17 -1.2998594E-07 
        48     -9.5537695E-03  2.1282000E-07 -2.8679967E-17  0.0000000E+00 -3.8136552E-17 -2.0230317E-07 
        49     -9.8114494E-03  4.4551134E-09  2.0150025E-17  0.0000000E+00  1.7910075E-18 -2.4734165E-07 
        50     -1.0072763E-02 -2.2381928E-07 -2.7592351E-17  0.0000000E+00  1.5321785E-17 -2.2915702E-07 
        51     -1.0337807E-02 -3.9108976E-07 -1.1788748E-17  0.0000000E+00  7.5983895E-17 -1.1551921E-07 
        52     -1.0606679E-02 -4.0760055E-07 -1.7345932E-16  0.0000000E+00  9.4733448E-17  3.5139133E-08 
        53     -1.0879479E-02 -3.3218954E-07 -1.8088129E-16  0.0000000E+00 -3.9717362E-17 -5.2351247E-08 
        54     -1.1156308E-02 -6.5713657E-07 -1.1307289E-16  0.0000000E+00 -1.9904651E-17 -1.0430461E-06 
        55     -1.1437269E-02 -2.7789277E-06 -1.4486996E-16  0.0000000E+00  4.1659725E-17 -4.0211845E-06 
        56     -1.1722464E-02 -9.2819269E-06 -1.6112251E-16  0.0000000E+00 -7.0251378E-17 -1.0019002E-05 
        57     -1.2011997E-02 -2.3384878E-05 -8.1148783E-18  0.0000000E+00 -6.4030434E-17 -1.8546380E-05 
        58     -1.2305973E-02 -4.6189520E-05 -3.2526448E-17  0.0000000E+00 -3.7155321E-18 -2.4566005E-05 
        59     -1.2604500E-02 -7.0135055E-05  1.3449323E-17  0.0000000E+00 -2.4517728E-17 -1.4259782E-05 
        60     -1.2910746E-02 -6.7903506E-05  6.8836816E-18  0.0000000E+00 -5.3301618E-18  3.8608296E-05 
        61     -1.3218840E-02  1.8331995E-05  2.0537229E-17  0.0000000E+00  1.2797024E-17  1.6367794E-04 
        62     -1.3532091E-02  2.7205907E-04 -1.8640514E-17  0.0000000E+00  2.9823066E-17  3.6906606E-04 
        63     -1.3850803E-02  7.5558342E-04 -2.9689653E-17  0.0000000E+00 -1.4144360E-18  5.7504970E-04 
        64     -1.4169904E-02  1.4087153E-03 -4.7239032E-17  0.0000000E+00  6.8117139E-17  7.0735628E-04 
        65     -1.4489262E-02  2.1562502E-03 -1.6665799E-16  0.0000000E+00  1.3038378E-16  7.6313738E-04 
        66     -1.4808659E-02  2.9205920E-03 -2.8301348E-16  0.0000000E+00  9.3926996E-17  7.4074130E-04 
        67     -1.5127833E-02  3.6233749E-03 -3.3272298E-16  0.0000000E+00  1.5526439E-18  6.4043702E-04 
        68     -1.5446540E-02  4.1876887E-03 -3.0622219E-16  0.0000000E+00 -3.6540783E-17  4.6517706E-04 
        69     -1.5764652E-02  4.5412423E-03 -2.6834863E-16  0.0000000E+00  4.5332719E-19  2.2149351E-04 
        70     -1.6082255E-02  4.6203728E-03 -2.9233841E-16  0.0000000E+00 -8.3246135E-18 -7.9531822E-05 
        71     -1.6399754E-02  4.3751108E-03 -2.6465263E-16  0.0000000E+00 -1.4290660E-17 -4.2145149E-04 
        72     -1.6717935E-02  3.7747998E-03 -2.6001245E-16  0.0000000E+00 -7.5053304E-17 -7.8189718E-04 
        73     -1.7037969E-02  2.8144125E-03 -1.2101941E-16  0.0000000E+00 -1.0746005E-16 -1.1314730E-03 
        74     -1.7361288E-02  1.5223173E-03 -6.3398859E-17  0.0000000E+00 -4.4908282E-17 -1.4324867E-03 
        75     -1.7689272E-02 -3.0958768E-05 -3.0976119E-17  0.0000000E+00  2.1331493E-17 -1.6380438E-03 
        76     -1.8029292E-02 -1.7212139E-03 -7.9632967E-17  0.0000000E+00 -5.9615146E-17 -1.6803117E-03 
        77     -1.8379277E-02 -3.2682724E-03  7.1622880E-17  0.0000000E+00 -5.8448757E-17 -1.0277041E-03 
        78     -1.8718474E-02 -3.4178303E-03  3.3103901E-17  0.0000000E+00  5.7141325E-18  1.7159464E-03 
        79     -1.8976656E-02  8.3856899E-04  7.8915490E-17  0.0000000E+00 -6.5889983E-17  8.4275330E-03 
        80     -1.9007335E-02  1.4260261E-02  1.3183919E-16  0.0000000E+00  4.9551899E-17  1.9975219E-02 
        81     -1.8633189E-02  4.1002813E-02 -3.5539450E-18  0.0000000E+00  5.3911473E-17  3.2691939E-02 
        82     -1.7833012E-02  7.9284581E-02  8.9674248E-18  0.0000000E+00  3.0539019E-17  4.3130232E-02 
        83     -1.6632162E-02  1.2642603E-01 -8.5907006E-17  0.0000000E+00  1.2048520E-16  5.1441274E-02 
        84     -1.5099282E-02  1.8144729E-01 -2.0639344E-16  0.0000000E+00  1.0605306E-16  5.7985569E-02 
        85     -1.3304565E-02  2.4213900E-01 -2.9860852E-16  0.0000000E+00  8.9424985E-17  6.2834358E-02 
        86     -1.1327106E-02  3.0688289E-01 -4.4302884E-16  0.0000000E+00  5.6943906E-17  6.6134319E-02 
        87     -9.2501039E-03  3.7419574E-01 -4.2185363E-16  0.0000000E+00  4.5607660E-17  6.8011193E-02 
        88     -7.1568540E-03  4.4271171E-01 -5.3629883E-16  0.0000000E+00  1.1719745E-16  6.8575463E-02 
        89     -5.1271874E-03  5.1116906E-01 -6.8301272E-16  0.0000000E+00  8.6363287E-17  6.7925375E-02 
        90     -3.2275843E-03  5.7839981E-01 -6.0157158E-16  0.0000000E+00  2.0000041E-17  6.6154989E-02 
        91     -1.5089334E-03  6.4333252E-01 -7.1017600E-16  0.0000000E+00 -2.0116070E-17  6.3366938E-02 
        92     -1.7863133E-05  7.0500258E-01 -8.2396302E-16  0.0000000E+00  4.3482748E-17  5.9660969E-02 
        93      1.2170063E-03  7.6253812E-01 -8.2751539E-16  0.0000000E+00  2.1187405E-18  5.5134499E-02 
        94      2.1793640E-03  8.1516997E-01 -6.6285507E-16  0.0000000E+00 -1.6424229E-16  4.9886051E-02 
        95      2.8700483E-03  8.6222072E-01 -6.5656859E-16  0.0000000E+00 -2.1158146E-16  4.3999558E-02 
        96      3.2963785E-03  9.0309228E-01 -4.7464335E-16  0.0000000E+00 -2.8233600E-16  3.7563585E-02 
        97      3.4817371E-03  9.3728326E-01  1.0328070E-16  0.0000000E+00 -3.3477942E-16  3.0664748E-02 
        98      3.4648168E-03  9.6436705E-01  4.8287663E-16  0.0000000E+00 -3.5028956E-16  2.3376559E-02 
        99      3.2833670E-03  9.8399436E-01  8.6561524E-16  0.0000000E+00 -3.4867899E-16  1.5789913E-02 
       100      2.9909099E-03  9.9591966E-01  1.1429466E-15  0.0000000E+00 -2.5403251E-16  8.0088139E-03 
       101      2.6402296E-03  1.0000000E+00  1.4311081E-15  0.0000000E+00 -2.2617575E-16  1.4008745E-04 
       102      2.2890293E-03  9.9620272E-01  1.5971887E-15  0.0000000E+00 -9.8062952E-17 -7.7113152E-03 
       103      1.9948159E-03  9.8459149E-01  1.6030070E-15  0.0000000E+00 -8.1793568E-17 -1.5462319E-02 
       104      1.8102624E-03  9.6530378E-01  1.8760460E-15  0.0000000E+00 -2.1325722E-16 -2.3028000E-02 
       105      1.7888324E-03  9.3857283E-01  2.1036016E-15  0.0000000E+00 -1.8117672E-16 -3.0323268E-02 
       106      1.9689526E-03  9.0470625E-01  2.3912144E-15  0.0000000E+00 -1.3295432E-16 -3.7263404E-02 
       107      2.3899047E-03  8.6410966E-01  2.7918556E-15  0.0000000E+00 -1.2516337E-16 -4.3746547E-02 
       108      3.0753388E-03  8.1728910E-01  2.8035543E-15  0.0000000E+00 -4.0220586E-17 -4.9685348E-02 
       109      4.0332983E-03  7.6482712E-01  2.7624940E-15  0.0000000E+00  5.0183382E-17 -5.4994156E-02 
       110      5.2648876E-03  7.0740444E-01  2.5360297E-15  0.0000000E+00  1.5917219E-17 -5.9568741E-02 
       111      6.7535707E-03  6.4580818E-01  2.4863783E-15  0.0000000E+00 -5.8767170E-18 -6.3309566E-02 
       112      8.4707259E-03  5.8091622E-01  2.3519083E-15  0.0000000E+00  1.3576266E-16 -6.6133542E-02 
       113      1.0370120E-02  5.1368543E-01  2.2382554E-15  0.0000000E+00  2.4315062E-16 -6.7952820E-02 
       114      1.2401540E-02  4.4517130E-01  2.0168183E-15  0.0000000E+00  2.2513002E-16 -6.8663256E-02 
       115      1.4498819E-02  3.7653591E-01  1.8091030E-15  0.0000000E+00  1.6687366E-16 -6.8162908E-02 
       116      1.6582226E-02  3.0903878E-01  1.5990548E-15  0.0000000E+00  2.2532994E-16 -6.6351454E-02 
       117      1.8568394E-02  2.4404576E-01  1.3046970E-15  0.0000000E+00  2.9179489E-16 -6.3111640E-02 
       118      2.0373554E-02  1.8305136E-01  1.1078812E-15  0.0000000E+00  3.2675800E-16 -5.8306470E-02 
       119      2.1917654E-02  1.2769464E-01  7.3205477E-16  0.0000000E+00  3.9558715E-16 -5.1783837E-02 
       120      2.3124473E-02  7.9774608E-02  3.7248860E-16  0.0000000E+00  2.5950566E-16 -4.3374983E-02 
       121      2.3931075E-02  4.1269021E-02  2.1848242E-16  0.0000000E+00  1.2987138E-16 -3.2887858E-02 
       122      2.4309357E-02  1.4362067E-02  9.2900979E-17  0.0000000E+00  1.1725184E-16 -2.0100515E-02 
       123      2.4282342E-02  8.5397676E-04 -1.8541302E-17  0.0000000E+00  5.4533910E-17 -8.4836107E-03 
       124      2.4028338E-02 -3.4327481E-03 -2.4809347E-17  0.0000000E+00 -2.0238793E-17 -1.7308082E-03 
       125      2.3694734E-02 -3.2867343E-03  3.5323986E-18  0.0000000E+00  1.6664110E-17  1.0282678E-03 
       126      2.3352223E-02 -1.7375197E-03 -3.9817178E-17  0.0000000E+00  1.1208182E-17  1.6801283E-03 
       127      2.3021708E-02 -5.0788418E-05 -2.2800619E-17  0.0000000E+00  2.2261021E-17  1.6300032E-03 
       128      2.2705252E-02  1.4903813E-03 -8.4775438E-17  0.0000000E+00  1.3371846E-17  1.4182727E-03 
       129      2.2393430E-02  2.7671848E-03 -3.9197517E-17  0.0000000E+00 -3.0106881E-17  1.1164639E-03 
       130      2.2084841E-02  3.7135155E-03 -3.1794291E-17  0.0000000E+00 -4.4755118E-17  7.6959665E-04 
       131      2.1778060E-02  4.3036575E-03  5.5034588E-17  0.0000000E+00 -4.8059326E-17  4.1383331E-04 
       132      2.1471931E-02  4.5440075E-03  7.3617201E-17  0.0000000E+00 -4.0472874E-17  7.7436283E-05 
       133      2.1165679E-02  4.4655676E-03  1.1101917E-16  0.0000000E+00  2.6586374E-17 -2.1819631E-04 
       134      2.0858907E-02  4.1177486E-03  9.0695464E-18  0.0000000E+00  1.0344545E-16 -4.5734449E-04 
       135      2.0551531E-02  3.5631120E-03 -4.5779160E-17  0.0000000E+00 -2.0701633E-17 -6.2935979E-04 
       136      2.0243676E-02  2.8725026E-03  3.0469112E-17  0.0000000E+00 -4.3707203E-18 -7.2796983E-04 
       137      1.9935581E-02  2.1212245E-03 -3.8195780E-17  0.0000000E+00  6.1064238E-18 -7.5021546E-04 
       138      1.9627505E-02  1.3861929E-03  1.9125069E-17  0.0000000E+00 -1.8851682E-17 -6.9565565E-04 
       139      1.9319662E-02  7.4371733E-04 -2.3022968E-17  0.0000000E+00  4.7961161E-17 -5.6574869E-04 
       140      1.9012180E-02  2.6793556E-04 -5.7551175E-17  0.0000000E+00 -8.7654285E-19 -3.6313988E-04 
       141      1.8712182E-02  1.8305397E-05 -1.7836709E-17  0.0000000E+00 -4.8302786E-17 -1.6097771E-04 
       142      1.8419372E-02 -6.6459643E-05  4.0770068E-17  0.0000000E+00 -8.5541940E-17 -3.7915448E-05 
       143      1.8133479E-02 -6.8845875E-05  1.3899513E-16  0.0000000E+00 -6.1970403E-17  1.3755860E-05 
       144      1.7854320E-02 -4.5386478E-05  1.5400365E-16  0.0000000E+00  2.5349237E-17  2.4177239E-05 
       145      1.7581769E-02 -2.2886359E-05  1.0312513E-16  0.0000000E+00  3.3305392E-17  1.8334396E-05 
       146      1.7315723E-02 -8.9302954E-06  9.8219146E-17  0.0000000E+00  3.7640635E-18  9.9258843E-06 
       147      1.7056086E-02 -2.4903392E-06  9.8059257E-17  0.0000000E+00  9.1395457E-18  3.9785192E-06 
       148      1.6802765E-02 -4.0513184E-07  8.6090664E-17  0.0000000E+00 -2.0131212E-17  1.0085466E-06 
       149      1.6555666E-02 -1.1820752E-07  1.3393488E-16  0.0000000E+00 -2.6860516E-17  9.6675422E-09 
       150      1.6314698E-02 -2.4020761E-07  1.2666751E-16  0.0000000E+00  4.1660682E-17 -8.5864927E-08 
       151      1.6079772E-02 -2.7407210E-07  5.7325655E-17  0.0000000E+00  8.3914206E-17  6.2748009E-08 
       152      1.5850801E-02 -1.5563290E-07 -1.7961943E-17  0.0000000E+00  3.1143203E-17  1.7988272E-07 
       153      1.5627700E-02  3.0136877E-08 -7.5476569E-18  0.0000000E+00 -2.4163213E-17  2.0512764E-07 
       154      1.5410386E-02  2.0394955E-07  1.6072121E-17  0.0000000E+00 -3.7361673E-18  1.6824124E-07 
       155      1.5198780E-02  3.2441796E-07  1.0242220E-17  0.0000000E+00 -4.4435089E-17  1.0476260E-07 
       156      1.4992802E-02  3.8009091E-07  9.6008072E-17  0.0000000E+00 -4.1608934E-17  4.1590434E-08 
       157      1.4792376E-02  3.8298989E-07  7.8358058E-17  0.0000000E+00  8.2341702E-17 -8.1739074E-10 
       158      1.4597429E-02  3.5832719E-07 -5.1061804E-17  0.0000000E+00  3.7337394E-17 -2.6271885E-08 
       159      1.4407888E-02  3.1386173E-07 -1.5927636E-18  0.0000000E+00 -2.7385678E-17 -4.2627057E-08 
       160      1.4223682E-02  2.6133160E-07 -1.8683340E-17  0.0000000E+00  4.1290472E-18 -4.8558581E-08 
       161      1.4044744E-02  2.0827854E-07 -1.0069916E-17  0.0000000E+00  6.7088104E-18 -4.7415842E-08 
       162      1.3871007E-02  1.6052802E-07 -3.0002090E-17  0.0000000E+00  1.8760316E-17 -4.2854150E-08 
       163      1.3702407E-02  1.1842717E-07 -4.1790837E-17  0.0000000E+00  2.6681382E-17 -3.8410238E-08 
       164      1.3538882E-02  8.1850083E-08 -8.1687138E-17  0.0000000E+00  1.0660402E-17 -3.2085363E-08 
       165      1.3380370E-02  5.3733597E-08 -7.0492392E-17  0.0000000E+00  2.6861628E-17 -2.4024911E-08 
       166      1.3226814E-02  3.3361771E-08 -1.3224072E-16  0.0000000E+00 -1.5647578E-17 -1.8561685E-08 
       167      1.3078156E-02  1.6857939E-08 -3.8189500E-17  0.0000000E+00 -9.3141990E-17 -1.5206131E-08 
       168      1.2934341E-02  4.1326265E-09  2.6045716E-17  0.0000000E+00  2.6532459E-17 -1.0880928E-08 
[...]
        21      3.2806929E-03  3.6842877E-09  9.7135631E-11  0.0000000E+00 -3.5447848E-11  1.4560446E-09 
        22      3.4381150E-03  5.6646465E-09  1.2738227E-10  0.0000000E+00 -8.1270196E-12  2.0727196E-09 
        23      3.5945779E-03  7.3999595E-09  1.0877789E-10  0.0000000E+00  4.5853564E-11  1.1853580E-10 
        24      3.7500379E-03  6.1239808E-09  3.8421043E-11  0.0000000E+00  8.3763597E-11 -1.4348605E-09 
        25      3.9044517E-03  5.3732443E-09 -5.0234049E-11  0.0000000E+00  7.2331318E-11  2.0385182E-10 
        26      4.0577763E-03  6.9216010E-09 -9.8803297E-11  0.0000000E+00  1.8064749E-11  2.3341273E-09 
        27      4.2099688E-03  9.9415090E-09 -8.5896151E-11  0.0000000E+00 -3.8880978E-11  2.0371754E-09 
        28      4.3609867E-03  1.1329618E-08 -2.6884164E-11  0.0000000E+00 -6.2171929E-11  1.0205837E-09 
        29      4.5107881E-03  1.2568016E-08  3.2508106E-11  0.0000000E+00 -5.1264047E-11 -9.1983376E-11 
        30      4.6593309E-03  1.1849356E-08  7.4702254E-11  0.0000000E+00 -3.4980678E-11 -1.4534412E-09 
        31      4.8065740E-03  1.0444826E-08  1.0550671E-10  0.0000000E+00 -3.6302794E-11 -3.4389367E-09 
        32      4.9524760E-03  5.8781411E-09  1.4839818E-10  0.0000000E+00 -4.4129365E-11 -6.1395470E-09 
        33      5.0969964E-03 -5.7720528E-10  1.8972382E-10  0.0000000E+00 -2.8427972E-11 -8.2755924E-09 
        34      5.2400948E-03 -9.7217665E-09  1.9849217E-10  0.0000000E+00  2.6440892E-11 -1.1614336E-08 
        35      5.3817313E-03 -2.2596756E-08  1.3699859E-10  0.0000000E+00  8.0456091E-11 -1.4547796E-08 
        36      5.5218663E-03 -3.7559147E-08  4.6183611E-11  0.0000000E+00  8.5005652E-11 -1.5876877E-08 
        37      5.6604609E-03 -5.4018731E-08 -2.7096217E-11  0.0000000E+00  5.5271033E-11 -1.8587542E-08 
        38      5.7974763E-03 -7.5022355E-08 -6.5016619E-11  0.0000000E+00  2.9488824E-11 -2.3058168E-08 
        39      5.9328742E-03 -1.0041075E-07 -8.9512104E-11  0.0000000E+00  2.3686070E-11 -2.5145165E-08 
        40      6.0666170E-03 -1.2664921E-07 -1.1300682E-10  0.0000000E+00  2.1759765E-11 -2.4816441E-08 
        41      6.1986673E-03 -1.5315260E-07 -1.3011925E-10  0.0000000E+00  2.9863370E-12 -2.4068868E-08 
        42      6.3289883E-03 -1.7919782E-07 -1.1499624E-10  0.0000000E+00 -3.8908913E-11 -2.0734302E-08 
        43      6.4575436E-03 -2.0078465E-07 -5.3639901E-11  0.0000000E+00 -7.3603747E-11 -1.3298830E-08 
        44      6.5842973E-03 -2.1414379E-07  2.7892553E-11  0.0000000E+00 -8.3599940E-11 -8.8603432E-10 
        45      6.7092141E-03 -2.1390420E-07  1.1043412E-10  0.0000000E+00 -7.4949046E-11  1.4340684E-08 
        46      6.8322591E-03 -1.9876022E-07  1.7239834E-10  0.0000000E+00 -3.5437381E-11  3.6022257E-08 
        47      6.9533980E-03 -1.5708294E-07  1.7751317E-10  0.0000000E+00  2.5677579E-11  6.7419506E-08 
        48      7.0725971E-03 -8.2657786E-08  1.2362830E-10  0.0000000E+00  7.2210000E-11  1.0178719E-07 
        49      7.1898230E-03  2.5762552E-08  3.8589647E-11  0.0000000E+00  8.6616603E-11  1.3671065E-07 
        50      7.3050431E-03  1.7006830E-07 -4.1868173E-11  0.0000000E+00  5.7244624E-11  1.7524025E-07 
        51      7.4182251E-03  3.5618564E-07 -7.5395065E-11  0.0000000E+00  2.5168823E-11  2.1565273E-07 
        52      7.5293376E-03  5.8501404E-07 -9.7546845E-11  0.0000000E+00  2.3745250E-11  2.6191428E-07 
        53      7.6383496E-03  8.7152786E-07 -1.2472715E-10  0.0000000E+00  3.3753366E-11  3.2710383E-07 
        54      7.7452305E-03  1.2425281E-06 -1.6399759E-10  0.0000000E+00  3.7223953E-11  4.2708668E-07 
        55      7.8499506E-03  1.7450507E-06 -1.9227136E-10  0.0000000E+00  7.2872898E-13  5.7872976E-07 
        56      7.9524806E-03  2.4348506E-06 -1.6189722E-10  0.0000000E+00 -5.6021782E-11  7.6929549E-07 
        57      8.0527918E-03  3.3233171E-06 -8.6389566E-11  0.0000000E+00 -7.7170184E-11  8.9197817E-07 
        58      8.1508563E-03  4.2383513E-06 -1.5714257E-11  0.0000000E+00 -5.1029125E-11  6.5925036E-07 
        59      8.2466470E-03  4.6057486E-06  1.1756059E-11  0.0000000E+00 -2.1024342E-12 -4.5973347E-07 
        60      8.3410464E-03  3.1700216E-06 -9.2727355E-12  0.0000000E+00  3.1849540E-11 -3.2255475E-06 
        61      8.4321616E-03 -1.9812382E-06 -4.6062307E-11  0.0000000E+00  3.0663162E-11 -7.9163711E-06 
        62      8.5209335E-03 -1.2559005E-05 -6.5554940E-11  0.0000000E+00 -3.0284098E-13 -1.3383202E-05 
        63      8.6073389E-03 -2.7846811E-05 -4.3974992E-11  0.0000000E+00 -3.9887627E-11 -1.5097607E-05 
        64      8.6881254E-03 -4.1316129E-05  8.6871720E-12  0.0000000E+00 -4.7268777E-11 -1.0013774E-05 
        65      8.7632256E-03 -4.6659664E-05  4.3235111E-11  0.0000000E+00 -1.2157933E-11  4.7068766E-07 
        66      8.8325790E-03 -3.9624599E-05  3.3335607E-11  0.0000000E+00  2.1724416E-11  1.3617032E-05 
        67      8.8961387E-03 -1.9241907E-05  3.3791398E-12  0.0000000E+00  3.4216356E-11  2.6186296E-05 
        68      8.9538742E-03  1.2402687E-05 -3.0365276E-11  0.0000000E+00  1.8593716E-11  3.5270553E-05 
        69      9.0057679E-03  5.0524584E-05 -3.0441067E-11  0.0000000E+00 -1.6314571E-11  3.8652153E-05 
        70      9.0518067E-03  8.8749438E-05 -1.4769438E-12  0.0000000E+00 -2.9771811E-11  3.5661409E-05 
        71      9.0919703E-03  1.2103777E-04  2.4297020E-11  0.0000000E+00 -1.4950126E-11  2.7654861E-05 
        72      9.1262248E-03  1.4362035E-04  2.6225074E-11  0.0000000E+00  1.2840065E-11  1.7330881E-05 
        73      9.1545279E-03  1.5595919E-04  8.8759929E-13  0.0000000E+00  2.7398452E-11  9.3133785E-06 
        74      9.1768575E-03  1.6371685E-04 -2.3990220E-11  0.0000000E+00  1.5204624E-11  1.1203235E-05 
        75      9.1932827E-03  1.8123101E-04 -2.8009968E-11  0.0000000E+00 -5.9455325E-12  3.1567042E-05 
        76      9.2074161E-03  2.2331180E-04 -1.3885723E-11  0.0000000E+00 -1.6783826E-11  3.2234579E-05 
        77      9.2186016E-03  2.2677233E-04  2.9681360E-12  0.0000000E+00 -1.2422002E-11 -7.8792043E-05 
        78      9.2239501E-03  2.9647952E-05  8.8965412E-12  0.0000000E+00  4.4352250E-12 -4.0432314E-04 
        79      9.2167673E-03 -6.2827665E-04 -8.1060933E-12  0.0000000E+00  3.4015113E-11 -1.0066803E-03 
        80      9.1873781E-03 -2.0082810E-03 -5.7823256E-11  0.0000000E+00  5.5420413E-11 -1.7561497E-03 
        81      9.1321666E-03 -4.0651531E-03 -1.1033035E-10  0.0000000E+00  2.6589962E-11 -2.0555187E-03 
        82      9.0692697E-03 -5.9831002E-03 -1.0442838E-10  0.0000000E+00 -4.0897919E-11 -1.5427687E-03 
        83      9.0234042E-03 -7.0484909E-03 -3.1751529E-11  0.0000000E+00 -9.4655734E-11 -4.6713439E-04 
        84      9.0131283E-03 -6.8587791E-03  7.3304106E-11  0.0000000E+00 -8.3599298E-11  8.6584761E-04 
        85      9.0443370E-03 -5.3359076E-03  1.2324843E-10  0.0000000E+00 -1.8122931E-12  2.0771733E-03 
        86      9.1079036E-03 -2.7746556E-03  7.8370217E-11  0.0000000E+00  7.2032431E-11  2.8598260E-03 
        87      9.1836909E-03  2.8340986E-04 -1.0241718E-11  0.0000000E+00  8.4265282E-11  3.0319688E-03 
        88      9.2465531E-03  3.1819699E-03 -8.1258290E-11  0.0000000E+00  4.3794301E-11  2.5495450E-03 
        89      9.2733106E-03  5.2915468E-03 -9.4724339E-11  0.0000000E+00 -1.5104908E-11  1.5075391E-03 
        90      9.2491453E-03  6.1437241E-03 -5.4838849E-11  0.0000000E+00 -5.2160759E-11  1.2785874E-04 
        91      9.1713656E-03  5.5476342E-03  4.3984716E-12  0.0000000E+00 -5.8443583E-11 -1.2714274E-03 
        92      9.0500166E-03  3.6555408E-03  5.8289546E-11  0.0000000E+00 -4.1833966E-11 -2.3680838E-03 
        93      8.9034623E-03  9.0768066E-04  8.4141379E-11  0.0000000E+00 -2.1586840E-12 -2.9152021E-03 
        94      8.7527871E-03 -2.0573225E-03  6.1685318E-11  0.0000000E+00  4.2848336E-11 -2.7855304E-03 
        95      8.6151644E-03 -4.5508449E-03  1.9564201E-12  0.0000000E+00  6.6901801E-11 -2.0079842E-03 
        96      8.4997852E-03 -5.9917250E-03 -6.4640644E-11  0.0000000E+00  4.7132788E-11 -7.6549956E-04 
        97      8.4055622E-03 -6.0478137E-03 -8.6897561E-11  0.0000000E+00 -4.4391423E-12  6.6098369E-04 
        98      8.3238393E-03 -4.6876223E-03 -5.6950078E-11  0.0000000E+00 -4.9317584E-11  1.9651119E-03 
        99      8.2420600E-03 -2.1853000E-03  6.2007324E-12  0.0000000E+00 -6.1564461E-11  2.8532286E-03 
       100      8.1494578E-03  9.1527703E-04  5.9454263E-11  0.0000000E+00 -3.4468654E-11  3.1155272E-03 
       101      8.0399522E-03  3.9316751E-03  7.2900322E-11  0.0000000E+00  6.3603062E-12  2.6936551E-03 
       102      7.9157070E-03  6.2041559E-03  4.6968985E-11  0.0000000E+00  4.5258253E-11  1.6857044E-03 
       103      7.7846868E-03  7.2403024E-03 -1.2696747E-11  0.0000000E+00  5.5120934E-11  3.0932355E-04 
       104      7.6581136E-03  6.8105180E-03 -5.6392306E-11  0.0000000E+00  2.5138491E-11 -1.1290112E-03 
       105      7.5451289E-03  5.0225989E-03 -6.2036546E-11  0.0000000E+00 -1.1118931E-11 -2.3099512E-03 
       106      7.4483240E-03  2.2731017E-03 -3.5390987E-11  0.0000000E+00 -3.9908811E-11 -2.9761596E-03 
       107      7.3622929E-03 -8.2211210E-04  1.4270088E-11  0.0000000E+00 -4.7754490E-11 -2.9716430E-03 
       108      7.2731125E-03 -3.5630844E-03  5.4345932E-11  0.0000000E+00 -2.1989855E-11 -2.2929010E-03 
       109      7.1623794E-03 -5.3283028E-03  5.5976244E-11  0.0000000E+00  1.7391730E-11 -1.0972258E-03 
       110      7.0137749E-03 -5.7273091E-03  2.2028346E-11  0.0000000E+00  4.2520295E-11  3.2755599E-04 
       111      6.8188241E-03 -4.7005873E-03 -2.5339208E-11  0.0000000E+00  4.5111560E-11  1.6444791E-03 
       112      6.5804079E-03 -2.5163072E-03 -6.2642645E-11  0.0000000E+00  1.4931940E-11  2.5584575E-03 
       113      6.3129328E-03  3.0229543E-04 -5.1530660E-11  0.0000000E+00 -3.6200803E-11  2.8601183E-03 
       114      6.0392871E-03  3.0742147E-03  4.5735324E-12  0.0000000E+00 -5.7045226E-11  2.4607745E-03 
       115      5.7857468E-03  5.1025011E-03  5.3651110E-11  0.0000000E+00 -2.6170180E-11  1.4141007E-03 
       116      5.5753043E-03  5.8099652E-03  5.4942809E-11  0.0000000E+00  1.6927044E-11 -1.0526035E-04 
       117      5.4215694E-03  4.8438201E-03  2.2958106E-11  0.0000000E+00  4.1787129E-11 -1.8322978E-03 
       118      5.3251289E-03  2.1446489E-03 -2.4393471E-11  0.0000000E+00  4.1294141E-11 -3.4846172E-03 
       119      5.2751851E-03 -2.0945169E-03 -5.4696948E-11  0.0000000E+00  1.1722521E-11 -4.8756237E-03 
       120      5.2552387E-03 -7.5745403E-03 -4.5793464E-11  0.0000000E+00 -2.9660728E-11 -6.0020523E-03 
       121      5.2507239E-03 -1.4104998E-02  1.4657899E-12  0.0000000E+00 -5.2577578E-11 -7.0990181E-03 
       122      5.2583748E-03 -2.1874159E-02  5.4483881E-11  0.0000000E+00 -4.6772481E-11 -8.7431586E-03 
       123      5.2633860E-03 -3.0917456E-02  9.0547191E-11  0.0000000E+00 -1.4932272E-11 -6.3003850E-03 
       124      5.0647720E-03 -3.1738195E-02  8.1659688E-11  0.0000000E+00  3.2314875E-11  1.2579561E-02 
       125      4.3411458E-03 -5.3044633E-04  2.8462149E-11  0.0000000E+00  6.4957195E-11  6.2836619E-02 
       126      2.8409390E-03  1.0052323E-01 -4.1345726E-11  0.0000000E+00  5.7772348E-11  1.5267989E-01 
       127      6.4356126E-04  3.0768798E-01 -8.1688601E-11  0.0000000E+00  1.9109589E-11  2.5988044E-01 
       128     -1.6278601E-03  6.0782488E-01 -7.9115159E-11  0.0000000E+00 -2.2903563E-11  2.9281116E-01 
       129     -3.0626548E-03  8.7271231E-01 -3.8576674E-11  0.0000000E+00 -4.9508111E-11  2.0274905E-01 
       130     -3.6214834E-03  1.0000000E+00  1.6132809E-11  0.0000000E+00 -5.3480403E-11  3.3148925E-02 
       131     -3.7440243E-03  9.3461048E-01  6.3702404E-11  0.0000000E+00 -2.9912040E-11 -1.6276007E-01 
       132     -3.9285713E-03  6.7887275E-01  7.3187355E-11  0.0000000E+00  9.8900109E-12 -3.3256451E-01 
       133     -4.4580159E-03  2.8063296E-01  4.5081136E-11  0.0000000E+00  4.3333035E-11 -4.3600069E-01 
       134     -5.3264141E-03 -1.7749477E-01 -1.1192134E-11  0.0000000E+00  6.2526666E-11 -4.4635401E-01 
       135     -6.3035881E-03 -5.9561310E-01 -7.3247261E-11  0.0000000E+00  4.2072951E-11 -3.5867876E-01 
       136     -7.0912515E-03 -8.8152776E-01 -8.8416635E-11  0.0000000E+00 -1.8673284E-11 -1.9165596E-01 
       137     -7.4718485E-03 -9.7271291E-01 -3.7277753E-11  0.0000000E+00 -7.1620304E-11  1.2325538E-02 
       138     -7.4191888E-03 -8.6075964E-01  4.7107949E-11  0.0000000E+00 -7.9317994E-11  1.9305808E-01 
       139     -7.0981157E-03 -6.0070275E-01  1.1402574E-10  0.0000000E+00 -4.3968538E-11  2.8953728E-01 
       140     -6.7697395E-03 -3.0325272E-01  1.3430665E-10  0.0000000E+00 -4.8253772E-12  2.5719089E-01 
       141     -6.6464348E-03 -9.8790874E-02  1.2886316E-10  0.0000000E+00  3.7955185E-12  1.5047640E-01 
       142     -6.6960534E-03  6.3132345E-04  1.3082979E-10  0.0000000E+00 -1.1567876E-11  6.1514689E-02 
       143     -6.8317865E-03  3.0696067E-02  1.5147522E-10  0.0000000E+00 -2.4265606E-11  1.1314544E-02 
       144     -6.9945985E-03  2.8382992E-02  1.7493715E-10  0.0000000E+00 -1.1266305E-11 -8.1860060E-03 
       145     -7.1594643E-03  1.7100179E-02  1.6987815E-10  0.0000000E+00  2.6324902E-11 -1.1068182E-02 
       146     -7.3200872E-03  7.2700251E-03  1.2156895E-10  0.0000000E+00  6.8678915E-11 -7.8349549E-03 
       147     -7.4766309E-03  1.5451442E-03  3.5462659E-11  0.0000000E+00  9.4055864E-11 -3.9242607E-03 
       148     -7.6302173E-03 -7.8552752E-04 -6.1202878E-11  0.0000000E+00  8.8453676E-11 -1.2591378E-03 
       149     -7.7814746E-03 -1.2024109E-03 -1.3685338E-10  0.0000000E+00  5.6024106E-11  3.0770129E-05 
       150     -7.9305662E-03 -8.7534885E-04 -1.6997400E-10  0.0000000E+00  4.9320695E-12  4.1401767E-04 
       151     -8.0774627E-03 -4.4510877E-04 -1.4689117E-10  0.0000000E+00 -4.4398060E-11  3.7417536E-04 
       152     -8.2221023E-03 -1.4607052E-04 -8.6840451E-11  0.0000000E+00 -6.1132776E-11  2.2070308E-04 
       153     -8.3644358E-03  1.5023076E-07 -3.0262444E-11  0.0000000E+00 -4.5450501E-11  9.0751363E-05 
       154     -8.5044265E-03  4.4781343E-05  2.4336100E-12  0.0000000E+00 -2.0723901E-11  1.7077901E-05 
       155     -8.6420401E-03  4.1767704E-05  1.5222129E-11  0.0000000E+00 -1.9791923E-11 -1.1728368E-05 
       156     -8.7772418E-03  2.5375947E-05  4.7264796E-11  0.0000000E+00 -4.9387929E-11 -1.6149854E-05 
       157     -8.9099951E-03  1.0967754E-05  1.1370974E-10  0.0000000E+00 -7.7352507E-11 -1.1497350E-05 
       158     -9.0402631E-03  2.5465339E-06  1.9358631E-10  0.0000000E+00 -5.6690760E-11 -5.7782244E-06 
       159     -9.1680093E-03 -9.0296387E-07  2.1838592E-10  0.0000000E+00  1.4765111E-11 -1.8764935E-06 
       160     -9.2931979E-03 -1.5520627E-06  1.6331755E-10  0.0000000E+00  9.0472484E-11  7.0678496E-09 
       161     -9.4157938E-03 -1.1164783E-06  4.4895441E-11  0.0000000E+00  1.2307153E-10  5.6632350E-07 
       162     -9.5357629E-03 -5.2636071E-07 -7.3742340E-11  0.0000000E+00  1.0361677E-10  5.1260997E-07 
       163     -9.6530717E-03 -1.2185653E-07 -1.6042586E-10  0.0000000E+00  7.3493249E-11  2.9337339E-07 
       164     -9.7676874E-03  6.4548119E-08 -2.2444352E-10  0.0000000E+00  6.5260408E-11  1.0852197E-07 
       165     -9.8795780E-03  1.0835054E-07 -2.9405145E-10  0.0000000E+00  7.5700982E-11  6.0815512E-09 
       166     -9.9887124E-03  8.7366744E-08 -3.7569283E-10  0.0000000E+00  8.5791611E-11 -3.2503144E-08 
       167     -1.0095060E-02  4.9591207E-08 -4.5990985E-10  0.0000000E+00  6.3120917E-11 -3.6274208E-08 
       168     -1.0198591E-02  1.7940680E-08 -4.9472398E-10  0.0000000E+00 -2.2878931E-12 -2.5780990E-08 
       169     -1.0299278E-02 -9.0646043E-10 -4.5132029E-10  0.0000000E+00 -9.1920907E-11 -1.3839887E-08 
       170     -1.0397090E-02 -9.6096054E-09 -3.1216921E-10  0.0000000E+00 -1.7383743E-10 -5.8973359E-09 
       171     -1.0492002E-02 -1.2464000E-08 -1.1389680E-10  0.0000000E+00 -1.9672885E-10 -1.1587876E-09 
       172     -1.0583987E-02 -1.1737232E-08  7.1203011E-11  0.0000000E+00 -1.6134324E-10  7.8818185E-10 
       173     -1.0673020E-02 -1.0580025E-08  2.0310246E-10  0.0000000E+00 -9.3315545E-11  1.3252250E-09 
       174     -1.0759074E-02 -8.6879232E-09  2.5582388E-10  0.0000000E+00 -1.4130586E-11  1.6221919E-09 
       175     -1.0842127E-02 -6.9998836E-09  2.3517034E-10  0.0000000E+00  4.3225531E-11  1.9062718E-09 
       176     -1.0922156E-02 -4.6844004E-09  1.7289034E-10  0.0000000E+00  8.0137610E-11  1.8630835E-09 
       177     -1.0999137E-02 -3.3128317E-09  7.4331967E-11  0.0000000E+00  1.1971242E-10  6.4865000E-10 
       178     -1.1073049E-02 -3.1860847E-09 -6.2137133E-11  0.0000000E+00  1.3426177E-10 -2.6423074E-10 
       179     -1.1143873E-02 -3.4523287E-09 -1.8590260E-10  0.0000000E+00  1.0143638E-10  2.8650639E-10 
       180     -1.1211587E-02 -2.5052703E-09 -2.6155482E-10  0.0000000E+00  4.8408557E-11  1.0584936E-09 
       181     -1.1276173E-02 -1.5157939E-09 -2.8417697E-10  0.0000000E+00  3.7092613E-12  7.4964856E-10 
       182     -1.1337614E-02 -1.0352424E-09 -2.7041852E-10  0.0000000E+00 -3.2534895E-11  2.6642100E-10 
       183     -1.1395892E-02 -9.1755284E-10 -2.1887706E-10  0.0000000E+00 -6.9728141E-11  1.7503433E-10 
       184     -1.1450990E-02 -5.4724045E-10 -1.3107673E-10  0.0000000E+00 -1.0636752E-10  9.0994239E-10 
       185     -1.1502894E-02  7.1731881E-10 -8.9318469E-12  0.0000000E+00 -1.2705162E-10  8.4745164E-10 
       186     -1.1551588E-02  9.5084067E-10  1.1609814E-10  0.0000000E+00 -1.0764811E-10 -8.2599289E-11 
       187     -1.1597060E-02  6.5842972E-10  1.9835824E-10  0.0000000E+00 -4.2085684E-11 -3.7433832E-10 
       188     -1.1639296E-02  2.4315157E-10  1.9880096E-10  0.0000000E+00  3.2164976E-11 -4.1914372E-10 
       189     -1.1678286E-02 -1.6202313E-10  1.3792281E-10  0.0000000E+00  8.3908824E-11 -3.5728827E-10 
       190     -1.1714017E-02 -4.4346927E-10  3.4706167E-11  0.0000000E+00  1.1383176E-10 -1.2910212E-10 
       191     -1.1746480E-02 -3.6084552E-10 -8.5881188E-11  0.0000000E+00  1.2151335E-10  4.5416085E-10 
       192     -1.1775666E-02  3.4529347E-10 -2.0325635E-10  0.0000000E+00  1.0009393E-10  4.9559329E-10 
       193     -1.1801567E-02  5.0892319E-10 -2.8200445E-10  0.0000000E+00  5.5027669E-11 -1.4396422E-11 
       194     -1.1824175E-02  3.7656746E-10 -3.1180564E-10  0.0000000E+00  1.0820396E-12 -1.6402159E-10 
       195     -1.1843485E-02  2.1095959E-10 -2.8513735E-10  0.0000000E+00 -4.6712888E-11 -1.3462531E-10 
       196     -1.1859490E-02  1.1309385E-10 -2.2390105E-10  0.0000000E+00 -6.2420914E-11 -7.0076198E-11 
       197     -1.1872187E-02  6.6430715E-11 -1.6454354E-10  0.0000000E+00 -5.3313675E-11 -3.1186637E-11 
       198     -1.1881572E-02  4.6459016E-11 -1.1801650E-10  0.0000000E+00 -4.0182056E-11 -1.8097986E-11 
       199     -1.1887642E-02  2.7654445E-11 -8.2368702E-11  0.0000000E+00 -3.7785626E-11 -2.0239378E-11 
       200     -1.1890395E-02  7.5941834E-12 -4.1456297E-11  0.0000000E+00 -4.1582450E-11 -1.3991700E-11 
       201     -1.1889831E-02  0.0000000E+00  0.0000000E+00  0.0000000E+00 -4.1429823E-11 -6.2057763E-12 

 MAXIMUM         9.2733E-03   1.000      2.5582E-10   0.000      1.3426E-10  0.2928    
 AT NODE                89         130         174           1         178         128

 MINIMUM        -1.1890E-02 -0.9727     -4.9472E-10   0.000     -1.9673E-10 -0.4464    
 AT NODE               200         137         168           1         171         134


          THE ANALYSIS HAS BEEN COMPLETED



                              ANALYSIS COMPLETE
                              WITH      5 WARNING MESSAGES ON THE DAT FILE



     JOB TIME SUMMARY
       USER TIME (SEC)      =   3.7000    
       SYSTEM TIME (SEC)    =  0.90000    
       TOTAL CPU TIME (SEC) =   4.6000    
       WALLCLOCK TIME (SEC) =          4
