1

   Abaqus 6.14-2                                  Date 05-Aug-2023   Time 11:12:06
   For use by T_EN NET SAS under license from Dassault Systemes or its subsidiary.

                                                                                 
 INITIAL SET UP                                                                  
 STEP    1     INCREMENT     1     STEP TIME    0.00    


                        S T E P       1     S T A T I C   A N A L Y S I S


          INITIAL SET UP                                                                  

     AUTOMATIC TIME CONTROL WITH -
          A SUGGESTED INITIAL TIME INCREMENT OF                1.000E-04
          AND A TOTAL TIME PERIOD OF                            1.00    
          THE MINIMUM TIME INCREMENT ALLOWED IS                1.000E-09
          THE MAXIMUM TIME INCREMENT ALLOWED IS                 1.00    

     LINEAR EQUATION SOLVER TYPE         DIRECT SPARSE

 CONVERGENCE TOLERANCE PARAMETERS FOR FORCE    
     CRITERION FOR RESIDUAL FORCE     FOR A NONLINEAR PROBLEM          5.000E-03
     CRITERION FOR DISP.    CORRECTION IN A NONLINEAR PROBLEM          1.000E-02
     INITIAL VALUE OF TIME AVERAGE FORCE                               1.000E-02
     AVERAGE FORCE     IS TIME AVERAGE FORCE    
     ALTERNATE CRIT. FOR RESIDUAL FORCE     FOR A NONLINEAR PROBLEM    2.000E-02
     CRITERION FOR ZERO FORCE     RELATIVE TO TIME AVRG. FORCE         1.000E-05
     CRITERION FOR RESIDUAL FORCE     WHEN THERE IS ZERO FLUX          1.000E-05
     CRITERION FOR DISP.    CORRECTION WHEN THERE IS ZERO FLUX         1.000E-03
     CRITERION FOR RESIDUAL FORCE     FOR A LINEAR INCREMENT           1.000E-08
     FIELD CONVERSION RATIO                                             1.00    
     CRITERION FOR ZERO FORCE     REL. TO TIME AVRG. MAX. FORCE        1.000E-05
     CRITERION FOR ZERO DISP.    RELATIVE TO CHARACTERISTIC LENGTH     1.000E-08

 CONVERGENCE TOLERANCE PARAMETERS FOR MOMENT   
     CRITERION FOR RESIDUAL MOMENT    FOR A NONLINEAR PROBLEM          5.000E-03
     CRITERION FOR ROTATION CORRECTION IN A NONLINEAR PROBLEM          1.000E-02
     INITIAL VALUE OF TIME AVERAGE MOMENT                              1.000E-02
     AVERAGE MOMENT    IS TIME AVERAGE MOMENT   
     ALTERNATE CRIT. FOR RESIDUAL MOMENT    FOR A NONLINEAR PROBLEM    2.000E-02
     CRITERION FOR ZERO MOMENT    RELATIVE TO TIME AVRG. MOMENT        1.000E-05
     CRITERION FOR RESIDUAL MOMENT    WHEN THERE IS ZERO FLUX          1.000E-05
     CRITERION FOR ROTATION CORRECTION WHEN THERE IS ZERO FLUX         1.000E-03
     CRITERION FOR RESIDUAL MOMENT    FOR A LINEAR INCREMENT           1.000E-08
     FIELD CONVERSION RATIO                                             1.00    
     CRITERION FOR ZERO MOMENT    REL. TO TIME AVRG. MAX. MOMENT       1.000E-05

     VOLUMETRIC STRAIN COMPATIBILITY TOLERANCE FOR HYBRID SOLIDS       1.000E-05
     AXIAL STRAIN COMPATIBILITY TOLERANCE FOR HYBRID BEAMS             1.000E-05
     TRANS. SHEAR STRAIN COMPATIBILITY TOLERANCE FOR HYBRID BEAMS      1.000E-05
     SOFT CONTACT CONSTRAINT COMPATIBILITY TOLERANCE FOR P>P0          5.000E-03
     SOFT CONTACT CONSTRAINT COMPATIBILITY TOLERANCE FOR P=0.0         0.100    
     CONTACT FORCE ERROR TOLERANCE FOR CONVERT SDI=YES                 1.00    
     DISPLACEMENT COMPATIBILITY TOLERANCE FOR DCOUP ELEMENTS           1.000E-05
     ROTATION COMPATIBILITY TOLERANCE FOR DCOUP ELEMENTS               1.000E-05

 EQUILIBRIUM WILL BE CHECKED FOR SEVERE DISCONTINUITY ITERATIONS

 TIME INCREMENTATION CONTROL PARAMETERS:
 *** FIRST EQUILIBRIUM ITERATION FOR CONSECUTIVE DIVERGENCE CHECK              8
 *** EQUILIBRIUM ITERATION AT WHICH LOG. CONVERGENCE RATE CHECK BEGINS        10
     EQUILIBRIUM ITERATION AFTER WHICH ALTERNATE RESIDUAL IS USED              9
     MAXIMUM EQUILIBRIUM ITERATIONS ALLOWED                                   16
     EQUILIBRIUM ITERATION COUNT FOR CUT-BACK IN NEXT INCREMENT               10
     MAXIMUM EQUILIB. ITERS IN TWO INCREMENTS FOR TIME INCREMENT INCREASE      4
     MAXIMUM ITERATIONS FOR SEVERE DISCONTINUITIES                            50
     MAXIMUM CUT-BACKS ALLOWED IN AN INCREMENT                                 5
     MAXIMUM DISCON. ITERS IN TWO INCREMENTS FOR TIME INCREMENT INCREASE      50
     MAXIMUM CONTACT AUGMENTATIONS FOR *SURFACE BEHAVIOR,AUGMENTED LAGRANGE   50
     CUT-BACK FACTOR AFTER DIVERGENCE                                 0.2500    
     CUT-BACK FACTOR FOR TOO SLOW CONVERGENCE                         0.5000    
     CUT-BACK FACTOR AFTER TOO MANY EQUILIBRIUM ITERATIONS            0.7500    
     CUT-BACK FACTOR AFTER TOO MANY SEVERE DISCONTINUITY ITERATIONS   0.2500    
     CUT-BACK FACTOR AFTER PROBLEMS IN ELEMENT ASSEMBLY               0.2500    
     INCREASE FACTOR AFTER TWO INCREMENTS THAT CONVERGE QUICKLY        1.500    
     MAX. TIME INCREMENT INCREASE FACTOR ALLOWED                       1.500    
     MAX. TIME INCREMENT INCREASE FACTOR ALLOWED (DYNAMICS)            1.250    
     MAX. TIME INCREMENT INCREASE FACTOR ALLOWED (DIFFUSION)           2.000    
     MINIMUM TIME INCREMENT RATIO FOR EXTRAPOLATION TO OCCUR          0.1000    
     MAX. RATIO OF TIME INCREMENT TO STABILITY LIMIT                   1.000    
     FRACTION OF STABILITY LIMIT FOR NEW TIME INCREMENT               0.9500    
     TIME INCREMENT INCREASE FACTOR BEFORE A TIME POINT                1.000    

 *** INDICATES USE OF NON-DEFAULT TIME INCREMENTATION CONTROL PARAMETER
     SELECTED WITH *CONTROLS
     GLOBAL STABILIZATION CONTROL IS NOT USED

          PRINT OF INCREMENT NUMBER, TIME, ETC., EVERY    1  INCREMENTS

     THE MAXIMUM NUMBER OF INCREMENTS IN THIS STEP IS                     100

          LARGE DISPLACEMENT THEORY WILL BE USED

     LINEAR EXTRAPOLATION WILL BE USED

     CHARACTERISTIC ELEMENT LENGTH      1.00    

     DETAILS REGARDING ACTUAL SOLUTION WAVEFRONT REQUESTED

     DETAILED OUTPUT OF DIAGNOSTICS TO DATABASE REQUESTED

     PRINT OF INCREMENT NUMBER, TIME, ETC., TO THE MESSAGE FILE EVERY     1  INCREMENTS

     ELEMENT OPERATIONS WILL BE CARRIED OUT IN PARALLEL USING   2 PROCESSORS

     PARALLEL CONTACT TRACKING ENABLED


     COLLECTING MODEL CONSTRAINT INFORMATION FOR OVERCONSTRAINT CHECKS

     COLLECTING STEP CONSTRAINT INFORMATION FOR OVERCONSTRAINT CHECKS
  
     ASYNCHRONOUS OUTPUT DATABASE FRAME FLUSH STARTED
  


  INCREMENT     1 STARTS. ATTEMPT NUMBER  1, TIME INCREMENT  1.000E-04
 
     INITIAL ELEMENT LOAD BALANCE
        COMPUTE NODE   1   PROCESS    NUMBER OF ELEMENTS
                              1            512
                              2            884

  NUMBER OF EQUATIONS =     3606     NUMBER OF FLOATING PT. OPERATIONS =  1.54E+06

  USING THE DIRECT SOLVER WITH   2 PROCESSORS

     CHECK POINT   START OF SOLVER    

     CHECK POINT  END OF SOLVER       

       ELAPSED USER TIME (SEC)      =   0.0000    
       ELAPSED SYSTEM TIME (SEC)    =   0.0000    
       ELAPSED TOTAL CPU TIME (SEC) =   0.0000    
       ELAPSED WALLCLOCK TIME (SEC) =          0

               CONVERGENCE CHECKS FOR EQUILIBRIUM ITERATION     1


 AVERAGE FORCE                       25.4       TIME AVG. FORCE        25.4    
 ALL FORCE     RESIDUALS ARE ZERO
 LARGEST INCREMENT OF DISP.         4.464E-35   AT NODE          1   DOF  1
 LARGEST CORRECTION TO DISP.        4.464E-35   AT NODE          1   DOF  1
          THE FORCE     EQUILIBRIUM RESPONSE WAS LINEAR IN THIS INCREMENT

 AVERAGE MOMENT                     9.520E-10   TIME AVG. MOMENT       25.4    
                                                (FROM FORCE     FIELD)
 LARGEST RESIDUAL MOMENT            2.347E-11   AT NODE        224   DOF  6
 LARGEST INCREMENT OF ROTATION     -9.578E-16   AT NODE        216   DOF  6
 LARGEST CORRECTION TO ROTATION    -9.578E-16   AT NODE        216   DOF  6
          THERE IS ZERO MOMENT    EVERYWHERE

 COMPATIBILITY ERRORS:
    TYPE                NUMBER EXCEEDING TOLERANCE  MAXIMUM ERROR        IN ELEMENT
 BEAM AXIAL                          0                4.840E-14                260
 BEAM SHEAR                          0                3.494E-18                217

 ITERATION SUMMARY FOR THE INCREMENT:   1 TOTAL ITERATIONS, OF WHICH
   0 ARE SEVERE DISCONTINUITY ITERATIONS AND  1 ARE EQUILIBRIUM ITERATIONS.

 TIME INCREMENT COMPLETED  1.000E-04,  FRACTION OF STEP COMPLETED  1.000E-04
 STEP TIME COMPLETED       1.000E-04,  TOTAL TIME COMPLETED        1.000E-04


  INCREMENT     2 STARTS. ATTEMPT NUMBER  1, TIME INCREMENT  1.000E-04

  NUMBER OF EQUATIONS =     3606     NUMBER OF FLOATING PT. OPERATIONS =  1.54E+06

  USING THE DIRECT SOLVER WITH   2 PROCESSORS

     CHECK POINT   START OF SOLVER    

     CHECK POINT  END OF SOLVER       

       ELAPSED USER TIME (SEC)      =   0.0000    
       ELAPSED SYSTEM TIME (SEC)    =   0.0000    
       ELAPSED TOTAL CPU TIME (SEC) =   0.0000    
       ELAPSED WALLCLOCK TIME (SEC) =          0

               CONVERGENCE CHECKS FOR EQUILIBRIUM ITERATION     1


 AVERAGE FORCE                       67.8       TIME AVG. FORCE        46.6    
 ALL FORCE     RESIDUALS ARE ZERO
 LARGEST INCREMENT OF DISP.         8.929E-35   AT NODE        260   DOF  1
 LARGEST CORRECTION TO DISP.        8.929E-35   AT NODE        260   DOF  1
          THE FORCE     EQUILIBRIUM RESPONSE WAS LINEAR IN THIS INCREMENT

 AVERAGE MOMENT                     7.880E-10   TIME AVG. MOMENT       25.4    
                                                (FROM FORCE     FIELD)
 LARGEST RESIDUAL MOMENT           -2.491E-11   AT NODE        224   DOF  6
 LARGEST INCREMENT OF ROTATION     -7.843E-18   AT NODE        215   DOF  6
 LARGEST CORRECTION TO ROTATION     9.526E-16   AT NODE        216   DOF  6
          THERE IS ZERO MOMENT    EVERYWHERE

 COMPATIBILITY ERRORS:
    TYPE                NUMBER EXCEEDING TOLERANCE  MAXIMUM ERROR        IN ELEMENT
 BEAM AXIAL                          0                1.350E-20                203
 BEAM SHEAR                          0                9.582E-18                215
          TIME INCREMENT MAY NOW INCREASE TO    1.500E-04

 ITERATION SUMMARY FOR THE INCREMENT:   1 TOTAL ITERATIONS, OF WHICH
   0 ARE SEVERE DISCONTINUITY ITERATIONS AND  1 ARE EQUILIBRIUM ITERATIONS.

 TIME INCREMENT COMPLETED  1.000E-04,  FRACTION OF STEP COMPLETED  2.000E-04
 STEP TIME COMPLETED       2.000E-04,  TOTAL TIME COMPLETED        2.000E-04


  INCREMENT     3 STARTS. ATTEMPT NUMBER  1, TIME INCREMENT  1.500E-04

  NUMBER OF EQUATIONS =     3606     NUMBER OF FLOATING PT. OPERATIONS =  1.54E+06

  USING THE DIRECT SOLVER WITH   2 PROCESSORS

     CHECK POINT   START OF SOLVER    

     CHECK POINT  END OF SOLVER       

       ELAPSED USER TIME (SEC)      =  0.10000    
       ELAPSED SYSTEM TIME (SEC)    =   0.0000    
       ELAPSED TOTAL CPU TIME (SEC) =  0.10000    
       ELAPSED WALLCLOCK TIME (SEC) =          0

               CONVERGENCE CHECKS FOR EQUILIBRIUM ITERATION     1


 AVERAGE FORCE                       117.       TIME AVG. FORCE        70.1    
 ALL FORCE     RESIDUALS ARE ZERO
 LARGEST INCREMENT OF DISP.         6.697E-35   AT NODE        261   DOF  1
 LARGEST CORRECTION TO DISP.       -6.697E-35   AT NODE        260   DOF  1
          THE FORCE     EQUILIBRIUM RESPONSE WAS LINEAR IN THIS INCREMENT

 AVERAGE MOMENT                     7.862E-10   TIME AVG. MOMENT       46.6    
                                                (FROM FORCE     FIELD)
 LARGEST RESIDUAL MOMENT           -2.917E-11   AT NODE        223   DOF  6
 LARGEST INCREMENT OF ROTATION      7.058E-18   AT NODE        215   DOF  6
 LARGEST CORRECTION TO ROTATION     1.882E-17   AT NODE        215   DOF  6
          THERE IS ZERO MOMENT    EVERYWHERE

 COMPATIBILITY ERRORS:
    TYPE                NUMBER EXCEEDING TOLERANCE  MAXIMUM ERROR        IN ELEMENT
 BEAM AXIAL                          0                1.350E-20                161
 BEAM SHEAR                          0               -3.746E-18                214
          TIME INCREMENT MAY NOW INCREASE TO    2.250E-04

 ITERATION SUMMARY FOR THE INCREMENT:   1 TOTAL ITERATIONS, OF WHICH
   0 ARE SEVERE DISCONTINUITY ITERATIONS AND  1 ARE EQUILIBRIUM ITERATIONS.

 TIME INCREMENT COMPLETED  1.500E-04,  FRACTION OF STEP COMPLETED  3.500E-04
 STEP TIME COMPLETED       3.500E-04,  TOTAL TIME COMPLETED        3.500E-04


  INCREMENT     4 STARTS. ATTEMPT NUMBER  1, TIME INCREMENT  2.250E-04

  NUMBER OF EQUATIONS =     3606     NUMBER OF FLOATING PT. OPERATIONS =  1.54E+06

  USING THE DIRECT SOLVER WITH   2 PROCESSORS

     CHECK POINT   START OF SOLVER    

     CHECK POINT  END OF SOLVER       

       ELAPSED USER TIME (SEC)      =  0.10000    
       ELAPSED SYSTEM TIME (SEC)    =   0.0000    
       ELAPSED TOTAL CPU TIME (SEC) =  0.10000    
       ELAPSED WALLCLOCK TIME (SEC) =          0

               CONVERGENCE CHECKS FOR EQUILIBRIUM ITERATION     1


 AVERAGE FORCE                       190.       TIME AVG. FORCE        100.    
 ALL FORCE     RESIDUALS ARE ZERO
 LARGEST INCREMENT OF DISP.         1.005E-34   AT NODE        267   DOF  1
 LARGEST CORRECTION TO DISP.       -6.797E-40   AT NODE        261   DOF  1
          THE FORCE     EQUILIBRIUM RESPONSE WAS LINEAR IN THIS INCREMENT

 AVERAGE MOMENT                     7.807E-10   TIME AVG. MOMENT       70.1    
                                                (FROM FORCE     FIELD)
 LARGEST RESIDUAL MOMENT            4.068E-11   AT NODE        199   DOF  6
 LARGEST INCREMENT OF ROTATION     -4.278E-18   AT NODE        218   DOF  6
 LARGEST CORRECTION TO ROTATION    -1.180E-17   AT NODE        215   DOF  6
          THERE IS ZERO MOMENT    EVERYWHERE

 COMPATIBILITY ERRORS:
    TYPE                NUMBER EXCEEDING TOLERANCE  MAXIMUM ERROR        IN ELEMENT
 BEAM AXIAL                          0               -1.356E-20                236
 BEAM SHEAR                          0                5.866E-18                217
          TIME INCREMENT MAY NOW INCREASE TO    3.375E-04

 ITERATION SUMMARY FOR THE INCREMENT:   1 TOTAL ITERATIONS, OF WHICH
   0 ARE SEVERE DISCONTINUITY ITERATIONS AND  1 ARE EQUILIBRIUM ITERATIONS.

 TIME INCREMENT COMPLETED  2.250E-04,  FRACTION OF STEP COMPLETED  5.750E-04
 STEP TIME COMPLETED       5.750E-04,  TOTAL TIME COMPLETED        5.750E-04


  INCREMENT     5 STARTS. ATTEMPT NUMBER  1, TIME INCREMENT  3.375E-04

  NUMBER OF EQUATIONS =     3606     NUMBER OF FLOATING PT. OPERATIONS =  1.54E+06

  USING THE DIRECT SOLVER WITH   2 PROCESSORS

     CHECK POINT   START OF SOLVER    

     CHECK POINT  END OF SOLVER       

       ELAPSED USER TIME (SEC)      =  0.10000    
       ELAPSED SYSTEM TIME (SEC)    =   0.0000    
       ELAPSED TOTAL CPU TIME (SEC) =  0.10000    
       ELAPSED WALLCLOCK TIME (SEC) =          0

               CONVERGENCE CHECKS FOR EQUILIBRIUM ITERATION     1


 AVERAGE FORCE                       302.       TIME AVG. FORCE        140.    
 ALL FORCE     RESIDUALS ARE ZERO
 LARGEST INCREMENT OF DISP.         1.507E-34   AT NODE        298   DOF  1
 LARGEST CORRECTION TO DISP.        2.913E-40   AT NODE        261   DOF  1
          THE FORCE     EQUILIBRIUM RESPONSE WAS LINEAR IN THIS INCREMENT

 AVERAGE MOMENT                     7.796E-10   TIME AVG. MOMENT       100.    
                                                (FROM FORCE     FIELD)
 LARGEST RESIDUAL MOMENT           -3.413E-11   AT NODE        198   DOF  6
 LARGEST INCREMENT OF ROTATION     -3.463E-18   AT NODE        214   DOF  6
 LARGEST CORRECTION TO ROTATION     7.777E-18   AT NODE        218   DOF  6
          THERE IS ZERO MOMENT    EVERYWHERE

 COMPATIBILITY ERRORS:
    TYPE                NUMBER EXCEEDING TOLERANCE  MAXIMUM ERROR        IN ELEMENT
 BEAM AXIAL                          0                1.351E-20                103
 BEAM SHEAR                          0                2.442E-18                218
          TIME INCREMENT MAY NOW INCREASE TO    5.062E-04

 ITERATION SUMMARY FOR THE INCREMENT:   1 TOTAL ITERATIONS, OF WHICH
   0 ARE SEVERE DISCONTINUITY ITERATIONS AND  1 ARE EQUILIBRIUM ITERATIONS.

 TIME INCREMENT COMPLETED  3.375E-04,  FRACTION OF STEP COMPLETED  9.125E-04
 STEP TIME COMPLETED       9.125E-04,  TOTAL TIME COMPLETED        9.125E-04


  INCREMENT     6 STARTS. ATTEMPT NUMBER  1, TIME INCREMENT  5.062E-04

  NUMBER OF EQUATIONS =     3606     NUMBER OF FLOATING PT. OPERATIONS =  1.54E+06

  USING THE DIRECT SOLVER WITH   2 PROCESSORS

     CHECK POINT   START OF SOLVER    

     CHECK POINT  END OF SOLVER       

       ELAPSED USER TIME (SEC)      =   0.0000    
       ELAPSED SYSTEM TIME (SEC)    =   0.0000    
       ELAPSED TOTAL CPU TIME (SEC) =   0.0000    
       ELAPSED WALLCLOCK TIME (SEC) =          0

               CONVERGENCE CHECKS FOR EQUILIBRIUM ITERATION     1


 AVERAGE FORCE                       469.       TIME AVG. FORCE        195.    
 ALL FORCE     RESIDUALS ARE ZERO
 LARGEST INCREMENT OF DISP.         2.260E-34   AT NODE        281   DOF  1
 LARGEST CORRECTION TO DISP.        7.094E-45   AT NODE        218   DOF  2
          THE FORCE     EQUILIBRIUM RESPONSE WAS LINEAR IN THIS INCREMENT

 AVERAGE MOMENT                     7.744E-10   TIME AVG. MOMENT       140.    
                                                (FROM FORCE     FIELD)
 LARGEST RESIDUAL MOMENT           -3.702E-11   AT NODE        223   DOF  6
 LARGEST INCREMENT OF ROTATION      4.187E-18   AT NODE        217   DOF  6
 LARGEST CORRECTION TO ROTATION    -7.646E-18   AT NODE        190   DOF  6
          THERE IS ZERO MOMENT    EVERYWHERE

 COMPATIBILITY ERRORS:
    TYPE                NUMBER EXCEEDING TOLERANCE  MAXIMUM ERROR        IN ELEMENT
 BEAM AXIAL                          0                1.347E-20                168
 BEAM SHEAR                          0               -6.647E-18                217
          TIME INCREMENT MAY NOW INCREASE TO    7.594E-04

 ITERATION SUMMARY FOR THE INCREMENT:   1 TOTAL ITERATIONS, OF WHICH
   0 ARE SEVERE DISCONTINUITY ITERATIONS AND  1 ARE EQUILIBRIUM ITERATIONS.

 TIME INCREMENT COMPLETED  5.062E-04,  FRACTION OF STEP COMPLETED  1.419E-03
 STEP TIME COMPLETED       1.419E-03,  TOTAL TIME COMPLETED        1.419E-03


  INCREMENT     7 STARTS. ATTEMPT NUMBER  1, TIME INCREMENT  7.594E-04

  NUMBER OF EQUATIONS =     3606     NUMBER OF FLOATING PT. OPERATIONS =  1.54E+06

  USING THE DIRECT SOLVER WITH   2 PROCESSORS

     CHECK POINT   START OF SOLVER    

     CHECK POINT  END OF SOLVER       

       ELAPSED USER TIME (SEC)      =  0.10000    
       ELAPSED SYSTEM TIME (SEC)    =   0.0000    
       ELAPSED TOTAL CPU TIME (SEC) =  0.10000    
       ELAPSED WALLCLOCK TIME (SEC) =          0

               CONVERGENCE CHECKS FOR EQUILIBRIUM ITERATION     1


 AVERAGE FORCE                       715.       TIME AVG. FORCE        269.    
 ALL FORCE     RESIDUALS ARE ZERO
 LARGEST INCREMENT OF DISP.         3.391E-34   AT NODE        104   DOF  1
 LARGEST CORRECTION TO DISP.        4.744E-45   AT NODE        219   DOF  2
          THE FORCE     EQUILIBRIUM RESPONSE WAS LINEAR IN THIS INCREMENT

 AVERAGE MOMENT                     7.730E-10   TIME AVG. MOMENT       195.    
                                                (FROM FORCE     FIELD)
 LARGEST RESIDUAL MOMENT            3.920E-11   AT NODE        199   DOF  6
 LARGEST INCREMENT OF ROTATION     -4.303E-18   AT NODE        212   DOF  6
 LARGEST CORRECTION TO ROTATION    -9.329E-18   AT NODE        217   DOF  6
          THERE IS ZERO MOMENT    EVERYWHERE

 COMPATIBILITY ERRORS:
    TYPE                NUMBER EXCEEDING TOLERANCE  MAXIMUM ERROR        IN ELEMENT
 BEAM AXIAL                          0                1.351E-20                182
 BEAM SHEAR                          0                6.639E-18                211
          TIME INCREMENT MAY NOW INCREASE TO    1.139E-03

 ITERATION SUMMARY FOR THE INCREMENT:   1 TOTAL ITERATIONS, OF WHICH
   0 ARE SEVERE DISCONTINUITY ITERATIONS AND  1 ARE EQUILIBRIUM ITERATIONS.

 TIME INCREMENT COMPLETED  7.594E-04,  FRACTION OF STEP COMPLETED  2.178E-03
 STEP TIME COMPLETED       2.178E-03,  TOTAL TIME COMPLETED        2.178E-03


  INCREMENT     8 STARTS. ATTEMPT NUMBER  1, TIME INCREMENT  1.139E-03

  NUMBER OF EQUATIONS =     3606     NUMBER OF FLOATING PT. OPERATIONS =  1.54E+06

  USING THE DIRECT SOLVER WITH   2 PROCESSORS

     CHECK POINT   START OF SOLVER    

     CHECK POINT  END OF SOLVER       

       ELAPSED USER TIME (SEC)      =   0.0000    
       ELAPSED SYSTEM TIME (SEC)    =   0.0000    
       ELAPSED TOTAL CPU TIME (SEC) =   0.0000    
       ELAPSED WALLCLOCK TIME (SEC) =          0

               CONVERGENCE CHECKS FOR EQUILIBRIUM ITERATION     1


 AVERAGE FORCE                      1.089E+03   TIME AVG. FORCE        372.    
 ALL FORCE     RESIDUALS ARE ZERO
 LARGEST INCREMENT OF DISP.         5.086E-34   AT NODE        105   DOF  1
 LARGEST CORRECTION TO DISP.       -5.036E-45   AT NODE        215   DOF  2
          THE FORCE     EQUILIBRIUM RESPONSE WAS LINEAR IN THIS INCREMENT

 AVERAGE MOMENT                     7.727E-10   TIME AVG. MOMENT       270.    
                                                (FROM FORCE     FIELD)
 LARGEST RESIDUAL MOMENT            2.838E-11   AT NODE        179   DOF  6
 LARGEST INCREMENT OF ROTATION      5.763E-18   AT NODE        212   DOF  6
 LARGEST CORRECTION TO ROTATION     1.222E-17   AT NODE        212   DOF  6
          THERE IS ZERO MOMENT    EVERYWHERE

 COMPATIBILITY ERRORS:
    TYPE                NUMBER EXCEEDING TOLERANCE  MAXIMUM ERROR        IN ELEMENT
 BEAM AXIAL                          0                1.360E-20                176
 BEAM SHEAR                          0               -4.941E-18                212
          TIME INCREMENT MAY NOW INCREASE TO    1.709E-03

 ITERATION SUMMARY FOR THE INCREMENT:   1 TOTAL ITERATIONS, OF WHICH
   0 ARE SEVERE DISCONTINUITY ITERATIONS AND  1 ARE EQUILIBRIUM ITERATIONS.

 TIME INCREMENT COMPLETED  1.139E-03,  FRACTION OF STEP COMPLETED  3.317E-03
 STEP TIME COMPLETED       3.317E-03,  TOTAL TIME COMPLETED        3.317E-03


  INCREMENT     9 STARTS. ATTEMPT NUMBER  1, TIME INCREMENT  1.709E-03

  NUMBER OF EQUATIONS =     3606     NUMBER OF FLOATING PT. OPERATIONS =  1.54E+06

  USING THE DIRECT SOLVER WITH   2 PROCESSORS

     CHECK POINT   START OF SOLVER    

     CHECK POINT  END OF SOLVER       

       ELAPSED USER TIME (SEC)      =  0.10000    
       ELAPSED SYSTEM TIME (SEC)    =   0.0000    
       ELAPSED TOTAL CPU TIME (SEC) =  0.10000    
       ELAPSED WALLCLOCK TIME (SEC) =          0

               CONVERGENCE CHECKS FOR EQUILIBRIUM ITERATION     1


 AVERAGE FORCE                      1.650E+03   TIME AVG. FORCE        514.    
 ALL FORCE     RESIDUALS ARE ZERO
 LARGEST INCREMENT OF DISP.         7.629E-34   AT NODE        101   DOF  1
 LARGEST CORRECTION TO DISP.        9.132E-45   AT NODE        218   DOF  2
          THE FORCE     EQUILIBRIUM RESPONSE WAS LINEAR IN THIS INCREMENT

 AVERAGE MOMENT                     7.696E-10   TIME AVG. MOMENT       372.    
                                                (FROM FORCE     FIELD)
 LARGEST RESIDUAL MOMENT            3.138E-11   AT NODE        225   DOF  6
 LARGEST INCREMENT OF ROTATION     -6.057E-18   AT NODE        212   DOF  6
 LARGEST CORRECTION TO ROTATION    -1.470E-17   AT NODE        212   DOF  6
          THERE IS ZERO MOMENT    EVERYWHERE

 COMPATIBILITY ERRORS:
    TYPE                NUMBER EXCEEDING TOLERANCE  MAXIMUM ERROR        IN ELEMENT
 BEAM AXIAL                          0               -1.360E-20                188
 BEAM SHEAR                          0                3.983E-18                212
          TIME INCREMENT MAY NOW INCREASE TO    2.563E-03

 ITERATION SUMMARY FOR THE INCREMENT:   1 TOTAL ITERATIONS, OF WHICH
   0 ARE SEVERE DISCONTINUITY ITERATIONS AND  1 ARE EQUILIBRIUM ITERATIONS.

 TIME INCREMENT COMPLETED  1.709E-03,  FRACTION OF STEP COMPLETED  5.026E-03
 STEP TIME COMPLETED       5.026E-03,  TOTAL TIME COMPLETED        5.026E-03


  INCREMENT    10 STARTS. ATTEMPT NUMBER  1, TIME INCREMENT  2.563E-03

  NUMBER OF EQUATIONS =     3606     NUMBER OF FLOATING PT. OPERATIONS =  1.54E+06

  USING THE DIRECT SOLVER WITH   2 PROCESSORS

     CHECK POINT   START OF SOLVER    

     CHECK POINT  END OF SOLVER       

       ELAPSED USER TIME (SEC)      =  0.10000    
       ELAPSED SYSTEM TIME (SEC)    =   0.0000    
       ELAPSED TOTAL CPU TIME (SEC) =  0.10000    
       ELAPSED WALLCLOCK TIME (SEC) =          0

               CONVERGENCE CHECKS FOR EQUILIBRIUM ITERATION     1


 AVERAGE FORCE                      2.491E+03   TIME AVG. FORCE        712.    
 ALL FORCE     RESIDUALS ARE ZERO
 LARGEST INCREMENT OF DISP.         1.144E-33   AT NODE        105   DOF  1
 LARGEST CORRECTION TO DISP.       -7.025E-45   AT NODE        218   DOF  2
          THE FORCE     EQUILIBRIUM RESPONSE WAS LINEAR IN THIS INCREMENT

 AVERAGE MOMENT                     7.628E-10   TIME AVG. MOMENT       514.    
                                                (FROM FORCE     FIELD)
 LARGEST RESIDUAL MOMENT            3.960E-11   AT NODE        223   DOF  6
 LARGEST INCREMENT OF ROTATION      3.552E-18   AT NODE        192   DOF  6
 LARGEST CORRECTION TO ROTATION     1.177E-17   AT NODE        212   DOF  6
          THERE IS ZERO MOMENT    EVERYWHERE

 COMPATIBILITY ERRORS:
    TYPE                NUMBER EXCEEDING TOLERANCE  MAXIMUM ERROR        IN ELEMENT
 BEAM AXIAL                          0               -1.360E-20                256
 BEAM SHEAR                          0               -3.908E-18                217
          TIME INCREMENT MAY NOW INCREASE TO    3.844E-03

 ITERATION SUMMARY FOR THE INCREMENT:   1 TOTAL ITERATIONS, OF WHICH
   0 ARE SEVERE DISCONTINUITY ITERATIONS AND  1 ARE EQUILIBRIUM ITERATIONS.

 TIME INCREMENT COMPLETED  2.563E-03,  FRACTION OF STEP COMPLETED  7.589E-03
 STEP TIME COMPLETED       7.589E-03,  TOTAL TIME COMPLETED        7.589E-03
  
     ASYNCHRONOUS OUTPUT DATABASE FRAME FLUSH STARTED
  


  INCREMENT    11 STARTS. ATTEMPT NUMBER  1, TIME INCREMENT  3.844E-03

  NUMBER OF EQUATIONS =     3606     NUMBER OF FLOATING PT. OPERATIONS =  1.54E+06

  USING THE DIRECT SOLVER WITH   2 PROCESSORS

     CHECK POINT   START OF SOLVER    

     CHECK POINT  END OF SOLVER       

       ELAPSED USER TIME (SEC)      =  0.10000    
       ELAPSED SYSTEM TIME (SEC)    =  0.10000    
       ELAPSED TOTAL CPU TIME (SEC) =  0.20000    
       ELAPSED WALLCLOCK TIME (SEC) =          0

               CONVERGENCE CHECKS FOR EQUILIBRIUM ITERATION     1


 AVERAGE FORCE                      3.726E+03   TIME AVG. FORCE        986.    
 ALL FORCE     RESIDUALS ARE ZERO
 LARGEST INCREMENT OF DISP.         1.716E-33   AT NODE        109   DOF  1
 LARGEST CORRECTION TO DISP.        5.225E-45   AT NODE        218   DOF  2
          THE FORCE     EQUILIBRIUM RESPONSE WAS LINEAR IN THIS INCREMENT

 AVERAGE MOMENT                     7.615E-10   TIME AVG. MOMENT       712.    
                                                (FROM FORCE     FIELD)
 LARGEST RESIDUAL MOMENT           -4.790E-11   AT NODE        178   DOF  6
 LARGEST INCREMENT OF ROTATION     -4.018E-18   AT NODE        192   DOF  6
 LARGEST CORRECTION TO ROTATION    -9.346E-18   AT NODE        192   DOF  6
          THERE IS ZERO MOMENT    EVERYWHERE

 COMPATIBILITY ERRORS:
    TYPE                NUMBER EXCEEDING TOLERANCE  MAXIMUM ERROR        IN ELEMENT
 BEAM AXIAL                          0                1.394E-20                188
 BEAM SHEAR                          0               -3.368E-18                208
          TIME INCREMENT MAY NOW INCREASE TO    5.767E-03

 ITERATION SUMMARY FOR THE INCREMENT:   1 TOTAL ITERATIONS, OF WHICH
   0 ARE SEVERE DISCONTINUITY ITERATIONS AND  1 ARE EQUILIBRIUM ITERATIONS.

 TIME INCREMENT COMPLETED  3.844E-03,  FRACTION OF STEP COMPLETED  1.143E-02
 STEP TIME COMPLETED       1.143E-02,  TOTAL TIME COMPLETED        1.143E-02


  INCREMENT    12 STARTS. ATTEMPT NUMBER  1, TIME INCREMENT  5.767E-03

  NUMBER OF EQUATIONS =     3606     NUMBER OF FLOATING PT. OPERATIONS =  1.54E+06

  USING THE DIRECT SOLVER WITH   2 PROCESSORS

     CHECK POINT   START OF SOLVER    

     CHECK POINT  END OF SOLVER       

       ELAPSED USER TIME (SEC)      =   0.0000    
       ELAPSED SYSTEM TIME (SEC)    =   0.0000    
       ELAPSED TOTAL CPU TIME (SEC) =   0.0000    
       ELAPSED WALLCLOCK TIME (SEC) =          0

               CONVERGENCE CHECKS FOR EQUILIBRIUM ITERATION     1


 AVERAGE FORCE                      5.606E+03   TIME AVG. FORCE       1.371E+03
 ALL FORCE     RESIDUALS ARE ZERO
 LARGEST INCREMENT OF DISP.         2.575E-33   AT NODE        288   DOF  1
 LARGEST CORRECTION TO DISP.       -5.023E-45   AT NODE        218   DOF  2
          THE FORCE     EQUILIBRIUM RESPONSE WAS LINEAR IN THIS INCREMENT

 AVERAGE MOMENT                     7.614E-10   TIME AVG. MOMENT       986.    
                                                (FROM FORCE     FIELD)
 LARGEST RESIDUAL MOMENT            3.604E-11   AT NODE        204   DOF  6
 LARGEST INCREMENT OF ROTATION     -4.840E-18   AT NODE        215   DOF  6
 LARGEST CORRECTION TO ROTATION     9.694E-18   AT NODE        192   DOF  6
          THERE IS ZERO MOMENT    EVERYWHERE

 COMPATIBILITY ERRORS:
    TYPE                NUMBER EXCEEDING TOLERANCE  MAXIMUM ERROR        IN ELEMENT
 BEAM AXIAL                          0                1.360E-20                182
 BEAM SHEAR                          0               -2.493E-18                183
          TIME INCREMENT MAY NOW INCREASE TO    8.650E-03

 ITERATION SUMMARY FOR THE INCREMENT:   1 TOTAL ITERATIONS, OF WHICH
   0 ARE SEVERE DISCONTINUITY ITERATIONS AND  1 ARE EQUILIBRIUM ITERATIONS.

 TIME INCREMENT COMPLETED  5.767E-03,  FRACTION OF STEP COMPLETED  1.720E-02
 STEP TIME COMPLETED       1.720E-02,  TOTAL TIME COMPLETED        1.720E-02


  INCREMENT    13 STARTS. ATTEMPT NUMBER  1, TIME INCREMENT  8.650E-03

  NUMBER OF EQUATIONS =     3606     NUMBER OF FLOATING PT. OPERATIONS =  1.54E+06

  USING THE DIRECT SOLVER WITH   2 PROCESSORS

     CHECK POINT   START OF SOLVER    

     CHECK POINT  END OF SOLVER       

       ELAPSED USER TIME (SEC)      =   0.0000    
       ELAPSED SYSTEM TIME (SEC)    =   0.0000    
       ELAPSED TOTAL CPU TIME (SEC) =   0.0000    
       ELAPSED WALLCLOCK TIME (SEC) =          0

               CONVERGENCE CHECKS FOR EQUILIBRIUM ITERATION     1


 AVERAGE FORCE                      8.425E+03   TIME AVG. FORCE       1.913E+03
 ALL FORCE     RESIDUALS ARE ZERO
 LARGEST INCREMENT OF DISP.         3.862E-33   AT NODE        136   DOF  1
 LARGEST CORRECTION TO DISP.       -5.808E-45   AT NODE        191   DOF  2
          THE FORCE     EQUILIBRIUM RESPONSE WAS LINEAR IN THIS INCREMENT

 AVERAGE MOMENT                     7.591E-10   TIME AVG. MOMENT      1.371E+03
                                                (FROM FORCE     FIELD)
 LARGEST RESIDUAL MOMENT           -2.724E-11   AT NODE        226   DOF  6
 LARGEST INCREMENT OF ROTATION     -3.248E-18   AT NODE        184   DOF  6
 LARGEST CORRECTION TO ROTATION     1.038E-17   AT NODE        215   DOF  6
          THERE IS ZERO MOMENT    EVERYWHERE

 COMPATIBILITY ERRORS:
    TYPE                NUMBER EXCEEDING TOLERANCE  MAXIMUM ERROR        IN ELEMENT
 BEAM AXIAL                          0                1.428E-20                216
 BEAM SHEAR                          0               -3.324E-18                182
          TIME INCREMENT MAY NOW INCREASE TO    1.297E-02

 ITERATION SUMMARY FOR THE INCREMENT:   1 TOTAL ITERATIONS, OF WHICH
   0 ARE SEVERE DISCONTINUITY ITERATIONS AND  1 ARE EQUILIBRIUM ITERATIONS.

 TIME INCREMENT COMPLETED  8.650E-03,  FRACTION OF STEP COMPLETED  2.585E-02
 STEP TIME COMPLETED       2.585E-02,  TOTAL TIME COMPLETED        2.585E-02


  INCREMENT    14 STARTS. ATTEMPT NUMBER  1, TIME INCREMENT  1.297E-02

  NUMBER OF EQUATIONS =     3606     NUMBER OF FLOATING PT. OPERATIONS =  1.54E+06

  USING THE DIRECT SOLVER WITH   2 PROCESSORS

     CHECK POINT   START OF SOLVER    

     CHECK POINT  END OF SOLVER       

       ELAPSED USER TIME (SEC)      =   0.0000    
       ELAPSED SYSTEM TIME (SEC)    =  0.10000    
       ELAPSED TOTAL CPU TIME (SEC) =  0.10000    
       ELAPSED WALLCLOCK TIME (SEC) =          0

               CONVERGENCE CHECKS FOR EQUILIBRIUM ITERATION     1


 AVERAGE FORCE                      1.265E+04   TIME AVG. FORCE       2.681E+03
 ALL FORCE     RESIDUALS ARE ZERO
 LARGEST INCREMENT OF DISP.         5.793E-33   AT NODE        308   DOF  1
 LARGEST CORRECTION TO DISP.        6.473E-45   AT NODE        213   DOF  2
          THE FORCE     EQUILIBRIUM RESPONSE WAS LINEAR IN THIS INCREMENT

 AVERAGE MOMENT                     7.598E-10   TIME AVG. MOMENT      1.913E+03
                                                (FROM FORCE     FIELD)
 LARGEST RESIDUAL MOMENT           -3.634E-11   AT NODE        224   DOF  6
 LARGEST INCREMENT OF ROTATION     -2.824E-18   AT NODE        215   DOF  6
 LARGEST CORRECTION TO ROTATION    -7.498E-18   AT NODE        215   DOF  6
          THERE IS ZERO MOMENT    EVERYWHERE

 COMPATIBILITY ERRORS:
    TYPE                NUMBER EXCEEDING TOLERANCE  MAXIMUM ERROR        IN ELEMENT
 BEAM AXIAL                          0               -1.496E-20                217
 BEAM SHEAR                          0               -2.885E-18                216
          TIME INCREMENT MAY NOW INCREASE TO    1.946E-02

 ITERATION SUMMARY FOR THE INCREMENT:   1 TOTAL ITERATIONS, OF WHICH
   0 ARE SEVERE DISCONTINUITY ITERATIONS AND  1 ARE EQUILIBRIUM ITERATIONS.

 TIME INCREMENT COMPLETED  1.297E-02,  FRACTION OF STEP COMPLETED  3.882E-02
 STEP TIME COMPLETED       3.882E-02,  TOTAL TIME COMPLETED        3.882E-02


  INCREMENT    15 STARTS. ATTEMPT NUMBER  1, TIME INCREMENT  1.946E-02

  NUMBER OF EQUATIONS =     3606     NUMBER OF FLOATING PT. OPERATIONS =  1.54E+06

  USING THE DIRECT SOLVER WITH   2 PROCESSORS

     CHECK POINT   START OF SOLVER    

     CHECK POINT  END OF SOLVER       

       ELAPSED USER TIME (SEC)      =   0.0000    
       ELAPSED SYSTEM TIME (SEC)    =   0.0000    
       ELAPSED TOTAL CPU TIME (SEC) =   0.0000    
       ELAPSED WALLCLOCK TIME (SEC) =          0

               CONVERGENCE CHECKS FOR EQUILIBRIUM ITERATION     1


 AVERAGE FORCE                      1.900E+04   TIME AVG. FORCE       3.768E+03
 ALL FORCE     RESIDUALS ARE ZERO
 LARGEST INCREMENT OF DISP.         8.690E-33   AT NODE         94   DOF  1
 LARGEST CORRECTION TO DISP.        7.037E-45   AT NODE        184   DOF  2
          THE FORCE     EQUILIBRIUM RESPONSE WAS LINEAR IN THIS INCREMENT

 AVERAGE MOMENT                     7.583E-10   TIME AVG. MOMENT      2.681E+03
                                                (FROM FORCE     FIELD)
 LARGEST RESIDUAL MOMENT           -2.324E-11   AT NODE        199   DOF  6
 LARGEST INCREMENT OF ROTATION      4.240E-18   AT NODE        218   DOF  6
 LARGEST CORRECTION TO ROTATION     8.195E-18   AT NODE        218   DOF  6
          THERE IS ZERO MOMENT    EVERYWHERE

 COMPATIBILITY ERRORS:
    TYPE                NUMBER EXCEEDING TOLERANCE  MAXIMUM ERROR        IN ELEMENT
 BEAM AXIAL                          0                1.496E-20                204
 BEAM SHEAR                          0               -3.137E-18                215
          TIME INCREMENT MAY NOW INCREASE TO    2.919E-02

 ITERATION SUMMARY FOR THE INCREMENT:   1 TOTAL ITERATIONS, OF WHICH
   0 ARE SEVERE DISCONTINUITY ITERATIONS AND  1 ARE EQUILIBRIUM ITERATIONS.

 TIME INCREMENT COMPLETED  1.946E-02,  FRACTION OF STEP COMPLETED  5.829E-02
 STEP TIME COMPLETED       5.829E-02,  TOTAL TIME COMPLETED        5.829E-02


  INCREMENT    16 STARTS. ATTEMPT NUMBER  1, TIME INCREMENT  2.919E-02

  NUMBER OF EQUATIONS =     3606     NUMBER OF FLOATING PT. OPERATIONS =  1.54E+06

  USING THE DIRECT SOLVER WITH   2 PROCESSORS

     CHECK POINT   START OF SOLVER    

     CHECK POINT  END OF SOLVER       

       ELAPSED USER TIME (SEC)      =   0.0000    
       ELAPSED SYSTEM TIME (SEC)    =   0.0000    
       ELAPSED TOTAL CPU TIME (SEC) =   0.0000    
       ELAPSED WALLCLOCK TIME (SEC) =          0

               CONVERGENCE CHECKS FOR EQUILIBRIUM ITERATION     1


 AVERAGE FORCE                      2.851E+04   TIME AVG. FORCE       5.315E+03
 ALL FORCE     RESIDUALS ARE ZERO
 LARGEST INCREMENT OF DISP.         1.303E-32   AT NODE        307   DOF  1
 LARGEST CORRECTION TO DISP.        7.236E-45   AT NODE        216   DOF  2
          THE FORCE     EQUILIBRIUM RESPONSE WAS LINEAR IN THIS INCREMENT

 AVERAGE MOMENT                     7.579E-10   TIME AVG. MOMENT      3.768E+03
                                                (FROM FORCE     FIELD)
 LARGEST RESIDUAL MOMENT            4.111E-11   AT NODE        197   DOF  6
 LARGEST INCREMENT OF ROTATION      3.691E-18   AT NODE        186   DOF  6
 LARGEST CORRECTION TO ROTATION    -6.280E-18   AT NODE        218   DOF  6
          THERE IS ZERO MOMENT    EVERYWHERE

 COMPATIBILITY ERRORS:
    TYPE                NUMBER EXCEEDING TOLERANCE  MAXIMUM ERROR        IN ELEMENT
 BEAM AXIAL                          0               -1.632E-20                187
 BEAM SHEAR                          0               -6.211E-18                185
          TIME INCREMENT MAY NOW INCREASE TO    4.379E-02

 ITERATION SUMMARY FOR THE INCREMENT:   1 TOTAL ITERATIONS, OF WHICH
   0 ARE SEVERE DISCONTINUITY ITERATIONS AND  1 ARE EQUILIBRIUM ITERATIONS.

 TIME INCREMENT COMPLETED  2.919E-02,  FRACTION OF STEP COMPLETED  8.748E-02
 STEP TIME COMPLETED       8.748E-02,  TOTAL TIME COMPLETED        8.748E-02


  INCREMENT    17 STARTS. ATTEMPT NUMBER  1, TIME INCREMENT  4.379E-02

  NUMBER OF EQUATIONS =     3606     NUMBER OF FLOATING PT. OPERATIONS =  1.54E+06

  USING THE DIRECT SOLVER WITH   2 PROCESSORS

     CHECK POINT   START OF SOLVER    

     CHECK POINT  END OF SOLVER       

       ELAPSED USER TIME (SEC)      =  0.10000    
       ELAPSED SYSTEM TIME (SEC)    =   0.0000    
       ELAPSED TOTAL CPU TIME (SEC) =  0.10000    
       ELAPSED WALLCLOCK TIME (SEC) =          0

               CONVERGENCE CHECKS FOR EQUILIBRIUM ITERATION     1


 AVERAGE FORCE                      4.278E+04   TIME AVG. FORCE       7.519E+03
 ALL FORCE     RESIDUALS ARE ZERO
 LARGEST INCREMENT OF DISP.         1.955E-32   AT NODE        400   DOF  1
 LARGEST CORRECTION TO DISP.        5.944E-45   AT NODE        217   DOF  2
          THE FORCE     EQUILIBRIUM RESPONSE WAS LINEAR IN THIS INCREMENT

 AVERAGE MOMENT                     7.562E-10   TIME AVG. MOMENT      5.315E+03
                                                (FROM FORCE     FIELD)
 LARGEST RESIDUAL MOMENT           -2.501E-11   AT NODE        200   DOF  6
 LARGEST INCREMENT OF ROTATION     -6.495E-18   AT NODE        185   DOF  6
 LARGEST CORRECTION TO ROTATION    -1.156E-17   AT NODE        185   DOF  6
          THERE IS ZERO MOMENT    EVERYWHERE

 COMPATIBILITY ERRORS:
    TYPE                NUMBER EXCEEDING TOLERANCE  MAXIMUM ERROR        IN ELEMENT
 BEAM AXIAL                          0                1.632E-20                180
 BEAM SHEAR                          0                6.378E-18                184
          TIME INCREMENT MAY NOW INCREASE TO    6.568E-02

 ITERATION SUMMARY FOR THE INCREMENT:   1 TOTAL ITERATIONS, OF WHICH
   0 ARE SEVERE DISCONTINUITY ITERATIONS AND  1 ARE EQUILIBRIUM ITERATIONS.

 TIME INCREMENT COMPLETED  4.379E-02,  FRACTION OF STEP COMPLETED  0.131    
 STEP TIME COMPLETED       0.131    ,  TOTAL TIME COMPLETED        0.131    


  INCREMENT    18 STARTS. ATTEMPT NUMBER  1, TIME INCREMENT  6.568E-02

  NUMBER OF EQUATIONS =     3606     NUMBER OF FLOATING PT. OPERATIONS =  1.54E+06

  USING THE DIRECT SOLVER WITH   2 PROCESSORS

     CHECK POINT   START OF SOLVER    

     CHECK POINT  END OF SOLVER       

       ELAPSED USER TIME (SEC)      =  0.10000    
       ELAPSED SYSTEM TIME (SEC)    =   0.0000    
       ELAPSED TOTAL CPU TIME (SEC) =  0.10000    
       ELAPSED WALLCLOCK TIME (SEC) =          0

               CONVERGENCE CHECKS FOR EQUILIBRIUM ITERATION     1


 AVERAGE FORCE                      6.419E+04   TIME AVG. FORCE       1.067E+04
 ALL FORCE     RESIDUALS ARE ZERO
 LARGEST INCREMENT OF DISP.         2.933E-32   AT NODE        311   DOF  1
 LARGEST CORRECTION TO DISP.       -5.129E-45   AT NODE        208   DOF  2
          THE FORCE     EQUILIBRIUM RESPONSE WAS LINEAR IN THIS INCREMENT

 AVERAGE MOMENT                     7.493E-10   TIME AVG. MOMENT      7.519E+03
                                                (FROM FORCE     FIELD)
 LARGEST RESIDUAL MOMENT           -2.697E-11   AT NODE        177   DOF  6
 LARGEST INCREMENT OF ROTATION      8.040E-18   AT NODE        215   DOF  6
 LARGEST CORRECTION TO ROTATION     1.565E-17   AT NODE        185   DOF  6
          THERE IS ZERO MOMENT    EVERYWHERE

 COMPATIBILITY ERRORS:
    TYPE                NUMBER EXCEEDING TOLERANCE  MAXIMUM ERROR        IN ELEMENT
 BEAM AXIAL                          0               -2.176E-20                175
 BEAM SHEAR                          0               -3.546E-18                214
          TIME INCREMENT MAY NOW INCREASE TO    9.853E-02

 ITERATION SUMMARY FOR THE INCREMENT:   1 TOTAL ITERATIONS, OF WHICH
   0 ARE SEVERE DISCONTINUITY ITERATIONS AND  1 ARE EQUILIBRIUM ITERATIONS.

 TIME INCREMENT COMPLETED  6.568E-02,  FRACTION OF STEP COMPLETED  0.197    
 STEP TIME COMPLETED       0.197    ,  TOTAL TIME COMPLETED        0.197    


  INCREMENT    19 STARTS. ATTEMPT NUMBER  1, TIME INCREMENT  9.853E-02

  NUMBER OF EQUATIONS =     3606     NUMBER OF FLOATING PT. OPERATIONS =  1.54E+06

  USING THE DIRECT SOLVER WITH   2 PROCESSORS

     CHECK POINT   START OF SOLVER    

     CHECK POINT  END OF SOLVER       

       ELAPSED USER TIME (SEC)      =  0.10000    
       ELAPSED SYSTEM TIME (SEC)    =   0.0000    
       ELAPSED TOTAL CPU TIME (SEC) =  0.10000    
       ELAPSED WALLCLOCK TIME (SEC) =          0

               CONVERGENCE CHECKS FOR EQUILIBRIUM ITERATION     1


 AVERAGE FORCE                      9.630E+04   TIME AVG. FORCE       1.517E+04
 ALL FORCE     RESIDUALS ARE ZERO
 LARGEST INCREMENT OF DISP.         4.399E-32   AT NODE        395   DOF  1
 LARGEST CORRECTION TO DISP.       -5.737E-45   AT NODE        184   DOF  2
          THE FORCE     EQUILIBRIUM RESPONSE WAS LINEAR IN THIS INCREMENT

 AVERAGE MOMENT                     7.470E-10   TIME AVG. MOMENT      1.067E+04
                                                (FROM FORCE     FIELD)
 LARGEST RESIDUAL MOMENT            3.703E-11   AT NODE        200   DOF  6
 LARGEST INCREMENT OF ROTATION     -3.160E-18   AT NODE        187   DOF  6
 LARGEST CORRECTION TO ROTATION    -1.273E-17   AT NODE        215   DOF  6
          THERE IS ZERO MOMENT    EVERYWHERE

 COMPATIBILITY ERRORS:
    TYPE                NUMBER EXCEEDING TOLERANCE  MAXIMUM ERROR        IN ELEMENT
 BEAM AXIAL                          0               -2.176E-20                173
 BEAM SHEAR                          0               -4.318E-18                215
          TIME INCREMENT MAY NOW INCREASE TO    0.148    

 ITERATION SUMMARY FOR THE INCREMENT:   1 TOTAL ITERATIONS, OF WHICH
   0 ARE SEVERE DISCONTINUITY ITERATIONS AND  1 ARE EQUILIBRIUM ITERATIONS.

 TIME INCREMENT COMPLETED  9.853E-02,  FRACTION OF STEP COMPLETED  0.295    
 STEP TIME COMPLETED       0.295    ,  TOTAL TIME COMPLETED        0.295    


  INCREMENT    20 STARTS. ATTEMPT NUMBER  1, TIME INCREMENT  0.148    

  NUMBER OF EQUATIONS =     3606     NUMBER OF FLOATING PT. OPERATIONS =  1.54E+06

  USING THE DIRECT SOLVER WITH   2 PROCESSORS

     CHECK POINT   START OF SOLVER    

     CHECK POINT  END OF SOLVER       

       ELAPSED USER TIME (SEC)      =   0.0000    
       ELAPSED SYSTEM TIME (SEC)    =   0.0000    
       ELAPSED TOTAL CPU TIME (SEC) =   0.0000    
       ELAPSED WALLCLOCK TIME (SEC) =          0

               CONVERGENCE CHECKS FOR EQUILIBRIUM ITERATION     1


 AVERAGE FORCE                      1.445E+05   TIME AVG. FORCE       2.164E+04
 ALL FORCE     RESIDUALS ARE ZERO
 LARGEST INCREMENT OF DISP.         6.599E-32   AT NODE         93   DOF  1
 LARGEST CORRECTION TO DISP.       -7.866E-45   AT NODE        185   DOF  2
          THE FORCE     EQUILIBRIUM RESPONSE WAS LINEAR IN THIS INCREMENT

 AVERAGE MOMENT                     7.511E-10   TIME AVG. MOMENT      1.518E+04
                                                (FROM FORCE     FIELD)
 LARGEST RESIDUAL MOMENT           -2.783E-11   AT NODE        180   DOF  6
 LARGEST INCREMENT OF ROTATION     -4.091E-18   AT NODE        215   DOF  6
 LARGEST CORRECTION TO ROTATION    -4.706E-18   AT NODE        218   DOF  6
          THERE IS ZERO MOMENT    EVERYWHERE

 COMPATIBILITY ERRORS:
    TYPE                NUMBER EXCEEDING TOLERANCE  MAXIMUM ERROR        IN ELEMENT
 BEAM AXIAL                          0               -3.264E-20                184
 BEAM SHEAR                          0               -2.135E-18                218
          TIME INCREMENT MAY NOW INCREASE TO    0.222    

 ITERATION SUMMARY FOR THE INCREMENT:   1 TOTAL ITERATIONS, OF WHICH
   0 ARE SEVERE DISCONTINUITY ITERATIONS AND  1 ARE EQUILIBRIUM ITERATIONS.

 TIME INCREMENT COMPLETED  0.148    ,  FRACTION OF STEP COMPLETED  0.443    
 STEP TIME COMPLETED       0.443    ,  TOTAL TIME COMPLETED        0.443    
  
     ASYNCHRONOUS OUTPUT DATABASE FRAME FLUSH STARTED
  


  INCREMENT    21 STARTS. ATTEMPT NUMBER  1, TIME INCREMENT  0.222    

  NUMBER OF EQUATIONS =     3606     NUMBER OF FLOATING PT. OPERATIONS =  1.54E+06

  USING THE DIRECT SOLVER WITH   2 PROCESSORS

     CHECK POINT   START OF SOLVER    

     CHECK POINT  END OF SOLVER       

       ELAPSED USER TIME (SEC)      =  0.20000    
       ELAPSED SYSTEM TIME (SEC)    =   0.0000    
       ELAPSED TOTAL CPU TIME (SEC) =  0.20000    
       ELAPSED WALLCLOCK TIME (SEC) =          0

               CONVERGENCE CHECKS FOR EQUILIBRIUM ITERATION     1


 AVERAGE FORCE                      2.113E+05   TIME AVG. FORCE       3.067E+04
 ALL FORCE     RESIDUALS ARE ZERO
 LARGEST INCREMENT OF DISP.         9.898E-32   AT NODE        395   DOF  1
 LARGEST CORRECTION TO DISP.        6.128E-45   AT NODE        185   DOF  2
          THE FORCE     EQUILIBRIUM RESPONSE WAS LINEAR IN THIS INCREMENT

 AVERAGE MOMENT                     7.537E-10   TIME AVG. MOMENT      2.164E+04
                                                (FROM FORCE     FIELD)
 LARGEST RESIDUAL MOMENT            4.239E-11   AT NODE        199   DOF  6
 LARGEST INCREMENT OF ROTATION     -4.067E-18   AT NODE        211   DOF  6
 LARGEST CORRECTION TO ROTATION     8.856E-18   AT NODE        188   DOF  6
          THERE IS ZERO MOMENT    EVERYWHERE

 COMPATIBILITY ERRORS:
    TYPE                NUMBER EXCEEDING TOLERANCE  MAXIMUM ERROR        IN ELEMENT
 BEAM AXIAL                          0                4.351E-20                146
 BEAM SHEAR                          0               -2.604E-18                214
          TIME INCREMENT MAY NOW INCREASE TO    0.333    

 ITERATION SUMMARY FOR THE INCREMENT:   1 TOTAL ITERATIONS, OF WHICH
   0 ARE SEVERE DISCONTINUITY ITERATIONS AND  1 ARE EQUILIBRIUM ITERATIONS.

 TIME INCREMENT COMPLETED  0.222    ,  FRACTION OF STEP COMPLETED  0.665    
 STEP TIME COMPLETED       0.665    ,  TOTAL TIME COMPLETED        0.665    


  INCREMENT    22 STARTS. ATTEMPT NUMBER  1, TIME INCREMENT  0.333    

  NUMBER OF EQUATIONS =     3606     NUMBER OF FLOATING PT. OPERATIONS =  1.54E+06

  USING THE DIRECT SOLVER WITH   2 PROCESSORS

     CHECK POINT   START OF SOLVER    

     CHECK POINT  END OF SOLVER       

       ELAPSED USER TIME (SEC)      =   0.0000    
       ELAPSED SYSTEM TIME (SEC)    =   0.0000    
       ELAPSED TOTAL CPU TIME (SEC) =   0.0000    
       ELAPSED WALLCLOCK TIME (SEC) =          0

               CONVERGENCE CHECKS FOR EQUILIBRIUM ITERATION     1


 AVERAGE FORCE                      3.170E+05   TIME AVG. FORCE       4.369E+04
 ALL FORCE     RESIDUALS ARE ZERO
 LARGEST INCREMENT OF DISP.         1.485E-31   AT NODE        136   DOF  1
 LARGEST CORRECTION TO DISP.       -4.681E-45   AT NODE        187   DOF  2
          THE FORCE     EQUILIBRIUM RESPONSE WAS LINEAR IN THIS INCREMENT

 AVERAGE MOMENT                     7.676E-10   TIME AVG. MOMENT      3.067E+04
                                                (FROM FORCE     FIELD)
 LARGEST RESIDUAL MOMENT            2.562E-11   AT NODE        180   DOF  6
 LARGEST INCREMENT OF ROTATION     -4.605E-18   AT NODE        218   DOF  6
 LARGEST CORRECTION TO ROTATION     8.447E-18   AT NODE        211   DOF  6
          THERE IS ZERO MOMENT    EVERYWHERE

 COMPATIBILITY ERRORS:
    TYPE                NUMBER EXCEEDING TOLERANCE  MAXIMUM ERROR        IN ELEMENT
 BEAM AXIAL                          0                4.351E-20                199
 BEAM SHEAR                          0                6.338E-18                218

 ITERATION SUMMARY FOR THE INCREMENT:   1 TOTAL ITERATIONS, OF WHICH
   0 ARE SEVERE DISCONTINUITY ITERATIONS AND  1 ARE EQUILIBRIUM ITERATIONS.

 TIME INCREMENT COMPLETED  0.333    ,  FRACTION OF STEP COMPLETED  0.997    
 STEP TIME COMPLETED       0.997    ,  TOTAL TIME COMPLETED        0.997    


  INCREMENT    23 STARTS. ATTEMPT NUMBER  1, TIME INCREMENT  2.523E-03

  NUMBER OF EQUATIONS =     3606     NUMBER OF FLOATING PT. OPERATIONS =  1.54E+06

  USING THE DIRECT SOLVER WITH   2 PROCESSORS

     CHECK POINT   START OF SOLVER    

     CHECK POINT  END OF SOLVER       

       ELAPSED USER TIME (SEC)      =   0.0000    
       ELAPSED SYSTEM TIME (SEC)    =   0.0000    
       ELAPSED TOTAL CPU TIME (SEC) =   0.0000    
       ELAPSED WALLCLOCK TIME (SEC) =          0

               CONVERGENCE CHECKS FOR EQUILIBRIUM ITERATION     1


 AVERAGE FORCE                      3.259E+05   TIME AVG. FORCE       5.596E+04
 ALL FORCE     RESIDUALS ARE ZERO
 LARGEST INCREMENT OF DISP.         1.126E-33   AT NODE        265   DOF  1
 LARGEST CORRECTION TO DISP.       -1.667E-45   AT NODE        188   DOF  2
          THE FORCE     EQUILIBRIUM RESPONSE WAS LINEAR IN THIS INCREMENT

 AVERAGE MOMENT                     7.661E-10   TIME AVG. MOMENT      4.369E+04
                                                (FROM FORCE     FIELD)
 LARGEST RESIDUAL MOMENT            2.990E-11   AT NODE        204   DOF  6
 LARGEST INCREMENT OF ROTATION      3.710E-18   AT NODE        219   DOF  6
 LARGEST CORRECTION TO ROTATION     3.736E-18   AT NODE        219   DOF  6
          THERE IS ZERO MOMENT    EVERYWHERE

 COMPATIBILITY ERRORS:
    TYPE                NUMBER EXCEEDING TOLERANCE  MAXIMUM ERROR        IN ELEMENT
 BEAM AXIAL                          0               -4.351E-20                195
 BEAM SHEAR                          0                3.245E-18                218

 ITERATION SUMMARY FOR THE INCREMENT:   1 TOTAL ITERATIONS, OF WHICH
   0 ARE SEVERE DISCONTINUITY ITERATIONS AND  1 ARE EQUILIBRIUM ITERATIONS.

 TIME INCREMENT COMPLETED  2.523E-03,  FRACTION OF STEP COMPLETED   1.00    
 STEP TIME COMPLETED        1.00    ,  TOTAL TIME COMPLETED         1.00    
1

   Abaqus 6.14-2                                  Date 05-Aug-2023   Time 11:12:10
   For use by T_EN NET SAS under license from Dassault Systemes or its subsidiary.

                                                                                 
 FREQUENCY EXTRACTION                                                            
 STEP    2     INCREMENT     1     STEP TIME    0.00    


                        S T E P       2     C A L C U L A T I O N   O F   E I G E N V A L U E S

                                            F O R   N A T U R A L   F R E Q U E N C I E S



          FREQUENCY EXTRACTION                                                            

     THE LANCZOS EIGENSOLVER IS USED FOR THIS ANALYSIS
     Abaqus WILL COMPUTE UNCOUPLED
      STRUCTURAL AND ACOUSTIC MODES
     NUMBER OF EIGENVALUES                     20
     HIGHEST FREQUENCY OF INTEREST                  1.00000E+18
     MAXIMUM NUMBER OF STEPS WITHIN RUN               35
     BLOCK SIZE FOR LANCZOS PROCEDURE                  7
     THE EIGENVECTORS ARE SCALED SO THAT 
      THE LARGEST DISPLACEMENT ENTRY IN EACH VECTOR
      IS UNITY
                              INITIAL STRESS AND DISPLACEMENT EFFECTS ARE
                              INCLUDED IN THE STIFFNESS MATRIX

     THIS IS A LINEAR PERTURBATION STEP.
     ALL LOADS ARE DEFINED AS CHANGE IN LOAD TO THE REFERENCE STATE

          LARGE DISPLACEMENT THEORY WILL BE USED

     EXTRAPOLATION WILL NOT BE USED

     CHARACTERISTIC ELEMENT LENGTH      1.00    

     DETAILS REGARDING ACTUAL SOLUTION WAVEFRONT REQUESTED

     DETAILED OUTPUT OF DIAGNOSTICS TO DATABASE REQUESTED

     PRINT OF INCREMENT NUMBER, TIME, ETC., TO THE MESSAGE FILE EVERY     1  INCREMENTS

 ***NOTE: SHARED MEMORY EXECUTION OF THE ELEMENT CALCULATIONS HAS BEEN TURNED 
          OFF DUE TO THE FOLLOWING FEATURE: SIM ARCHITECTURE IS NOT ACTIVE

     ELEMENT OPERATIONS WILL NOT BE CARRIED OUT IN PARALLEL

     COLLECTING STEP CONSTRAINT INFORMATION FOR OVERCONSTRAINT CHECKS

     CHECK POINT   START OF SOLVER    
  
 COMPUTER PRECISION USED BY ABAQUS      2.22045e-016
 CONVERGENCE CRITERION FOR LANCZOS RUN  1.81899e-012
  
 NUMBER OF EQUATIONS                                                        3606
 NUMBER OF UNRESTRAINED DEGREES OF FREEDOM                                  1998
 HEURISTIC SCALE FOR THE FIRST NONZERO EIGENVALUES (PROBLEM SCALE)  3.15701e-003
 INITIAL SHIFT VALUE                                                0.00000e+000
  
 NUMBER OF CPUS USED BY DIRECT SOLVER     2
  
 NUMBER OF NEGATIVE EIGENVALUES  1200
 NUMBER OF POSITIVE EIGENVALUES  2406
 NUMBER OF NEGATIVE EIGENVALUES NOT ASSOCIATED WITH LAGRANGE MULTIPLIERS     0
 NUMBER OF LAGRANGE MULTIPLIERS  1200
  
 COMPUTATIONAL INTERVAL FOR THE INITIAL LANCZOS RUN
 
 EIGENVALUES NEEDED TO THE RIGHT OF SHIFT VALUE   20
 EIGENVALUES NEEDED TO THE LEFT OF SHIFT VALUE     0
 RIGHT BOUNDARY OF THE COMPUTATIONAL INTERVAL  3.95574e+037
 LEFT BOUNDARY OF THE COMPUTATIONAL INTERVAL  -3.95574e+037
  
 LANCZOS RUN TERMINATED. NUMBER OF STEPS:   16
 ALL THE EIGENVALUES REQUESTED ON THIS LANCZOS RUN ARE FOUND
  
 NUMBER OF ACCEPTED EIGENVALUES   20
  
 ACCEPTED EIGENVALUES
  4.78328e+001 7.46513e+001 2.68639e+002 2.84832e+002 7.50191e+002 8.15907e+002
  8.48918e+002 9.19924e+002 1.00352e+003 1.05355e+003 2.33807e+003 2.48075e+003
  4.73874e+003 4.95748e+003 5.11118e+003 5.14968e+003 5.83479e+003 6.07839e+003
  6.16376e+003 8.47620e+003
  
 FACTORIZATION WITH NEW SHIFT VALUE IS REQUIRED
  
 TRUST INTERVALS AFTER LANCZOS RUN AND COMPRESSION
  
 NUMBER OF TRUST INTERVALS    1
  
 -------------------------------------------------------------------------------------
 | KEY | INSIDE |      INERTIAS     |  SENTINELS  |   OUTSIDE   |  NEED TO FIND      |
 |      ENDS OF INTERVAL     |     ENDS OF SENTINEL      |   COMPUTATIONAL INTERVAL  |
 -------------------------------------------------------------------------------------
 |  +  |      0 |     1200     1200 |     0     0 |     0     0 |      0    20       |
 |-3.95574e+037 0.00000e+000 |-3.95574e+037 0.00000e+000 |-3.95574e+037 3.95574e+037 |
 -------------------------------------------------------------------------------------
  
 DATA FOR CHOOSING SHIFT
  
 NUMBER OF EIGENVALUES NEEDED IN THE PRIMARY TRUST INTERVAL   20
  
 NUMBER OF MODES FORMING SENTINEL TO THE RIGHT   20
 SHIFT RIGHT        8.94043e+003
  
 NUMBER OF MODES FORMING SENTINEL TO THE LEFT     0
 SHIFT LEFT         0.00000e+000
  
 SHIFTING TO THE RIGHT DIRECTION
 NEW SHIFT          8.94043e+003
  
 NUMBER OF NEGATIVE EIGENVALUES  1220
 NUMBER OF POSITIVE EIGENVALUES  2386
 NUMBER OF NEGATIVE EIGENVALUES NOT ASSOCIATED WITH LAGRANGE MULTIPLIERS    20
 NUMBER OF LAGRANGE MULTIPLIERS  1200
  
 THE REQUIRED NUMBER OF EIGENVALUES IS FOUND
  
 FINAL TRUST INTERVAL
  
 -------------------------------------------------------------------------------------
 | KEY | INSIDE |      INERTIAS     |  SENTINELS  |   OUTSIDE   |  NEED TO FIND      |
 |      ENDS OF INTERVAL     |     ENDS OF SENTINEL      |   COMPUTATIONAL INTERVAL  |
 -------------------------------------------------------------------------------------
 |  +  |     20 |     1200     1220 |     0     0 |     0     0 |      0     0       |
 |-3.95574e+037 8.94043e+003 |-3.95574e+037 8.94043e+003 |-3.95574e+037 8.94043e+003 |
 -------------------------------------------------------------------------------------
  
 FIRST EIGENVALUE REQUESTED BY THE USER     1
  
 EIGENVALUES REQUESTED BY THE USER
  4.78328e+001 7.46513e+001 2.68639e+002 2.84832e+002 7.50191e+002 8.15907e+002
  8.48918e+002 9.19924e+002 1.00352e+003 1.05355e+003 2.33807e+003 2.48075e+003
  4.73874e+003 4.95748e+003 5.11118e+003 5.14968e+003 5.83479e+003 6.07839e+003
  6.16376e+003 8.47620e+003
  
 EIGENVALUE EXTRACTION USING THE LANCZOS EIGENSOLVER IS COMPLETE
 NUMBER OF LANCZOS RUNS       :   1
 NUMBER OF LANCZOS STEPS      :  16
 NUMBER OF FACTORIZATIONS     :   2
 NUMBER OF BACK SUBSTITUTIONS :  17

     CHECK POINT  END OF SOLVER       

       ELAPSED USER TIME (SEC)      =   1.0000    
       ELAPSED SYSTEM TIME (SEC)    =  0.30000    
       ELAPSED TOTAL CPU TIME (SEC) =   1.3000    
       ELAPSED WALLCLOCK TIME (SEC) =          1


          THE ANALYSIS HAS BEEN COMPLETED



     ANALYSIS SUMMARY:
     TOTAL OF         24  INCREMENTS
                       0  CUTBACKS IN AUTOMATIC INCREMENTATION
                      23  ITERATIONS INCLUDING CONTACT ITERATIONS IF PRESENT
                      42  PASSES THROUGH THE EQUATION SOLVER OF WHICH 
                      25  INVOLVE MATRIX DECOMPOSITION, INCLUDING
                       0  DECOMPOSITION(S) OF THE MASS MATRIX
                       1  REORDERING OF EQUATIONS TO MINIMIZE WAVEFRONT
                       0  ADDITIONAL RESIDUAL EVALUATIONS FOR LINE SEARCHES
                       0  ADDITIONAL OPERATOR EVALUATIONS FOR LINE SEARCHES
                       5  WARNING MESSAGES DURING USER INPUT PROCESSING
                       0  WARNING MESSAGES DURING ANALYSIS
                       0  ANALYSIS WARNINGS ARE NUMERICAL PROBLEM MESSAGES
                       0  ANALYSIS WARNINGS ARE NEGATIVE EIGENVALUE MESSAGES
                       0  ERROR MESSAGES



     JOB TIME SUMMARY
       USER TIME (SEC)      =   7.2000    
       SYSTEM TIME (SEC)    =   1.7000    
       TOTAL CPU TIME (SEC) =   8.9000    
       WALLCLOCK TIME (SEC) =          9
