*INCLUDE, INPUT=in_place_nodes.dat
*ELEMENT, ELSET=PIPE, TYPE=PIPE31H
1, 1, 2
*ELGEN, ELSET=PIPE
1, 200, 1, 1
*BEAM SECTION,SECT=PIPE,ELSET=PIPE,MATERIAL=STEEL
0.1683, 0.0127
*MATERIAL, NAME=STEEL
*ELASTIC
2.070e+11, 0.3
*DENSITY
9.142e+03
*ELEMENT, TYPE=SPRING1, ELSET=SPR_AX
201, 1
*ELEMENT, TYPE=SPRING1, ELSET=SPR_VERT
337, 1
*ELEMENT, TYPE=SPRING1, ELSET=SPR_LAT
473, 1
*ELEMENT, TYPE=SPRING1, ELSET=SPR_AX
202, 2
*ELEMENT, TYPE=SPRING1, ELSET=SPR_VERT
338, 2
*ELEMENT, TYPE=SPRING1, ELSET=SPR_LAT
474, 2
*ELEMENT, TYPE=SPRING1, ELSET=SPR_AX
203, 3
*ELEMENT, TYPE=SPRING1, ELSET=SPR_VERT
339, 3
*ELEMENT, TYPE=SPRING1, ELSET=SPR_LAT
475, 3
*ELEMENT, TYPE=SPRING1, ELSET=SPR_AX
204, 4
*ELEMENT, TYPE=SPRING1, ELSET=SPR_VERT
340, 4
*ELEMENT, TYPE=SPRING1, ELSET=SPR_LAT
476, 4
*ELEMENT, TYPE=SPRING1, ELSET=SPR_AX
205, 5
*ELEMENT, TYPE=SPRING1, ELSET=SPR_VERT
341, 5
*ELEMENT, TYPE=SPRING1, ELSET=SPR_LAT
477, 5
*ELEMENT, TYPE=SPRING1, ELSET=SPR_AX
206, 6
*ELEMENT, TYPE=SPRING1, ELSET=SPR_VERT
342, 6
*ELEMENT, TYPE=SPRING1, ELSET=SPR_LAT
478, 6
*ELEMENT, TYPE=SPRING1, ELSET=SPR_AX
207, 7
*ELEMENT, TYPE=SPRING1, ELSET=SPR_VERT
343, 7
*ELEMENT, TYPE=SPRING1, ELSET=SPR_LAT
479, 7
*ELEMENT, TYPE=SPRING1, ELSET=SPR_AX
208, 8
*ELEMENT, TYPE=SPRING1, ELSET=SPR_VERT
344, 8
*ELEMENT, TYPE=SPRING1, ELSET=SPR_LAT
480, 8
*ELEMENT, TYPE=SPRING1, ELSET=SPR_AX
209, 9
*ELEMENT, TYPE=SPRING1, ELSET=SPR_VERT
345, 9
*ELEMENT, TYPE=SPRING1, ELSET=SPR_LAT
481, 9
*ELEMENT, TYPE=SPRING1, ELSET=SPR_AX
210, 10
*ELEMENT, TYPE=SPRING1, ELSET=SPR_VERT
346, 10
*ELEMENT, TYPE=SPRING1, ELSET=SPR_LAT
482, 10
*ELEMENT, TYPE=SPRING1, ELSET=SPR_AX
211, 11
*ELEMENT, TYPE=SPRING1, ELSET=SPR_VERT
347, 11
*ELEMENT, TYPE=SPRING1, ELSET=SPR_LAT
483, 11
*ELEMENT, TYPE=SPRING1, ELSET=SPR_AX
212, 12
*ELEMENT, TYPE=SPRING1, ELSET=SPR_VERT
348, 12
*ELEMENT, TYPE=SPRING1, ELSET=SPR_LAT
484, 12
*ELEMENT, TYPE=SPRING1, ELSET=SPR_AX
213, 13
*ELEMENT, TYPE=SPRING1, ELSET=SPR_VERT
349, 13
*ELEMENT, TYPE=SPRING1, ELSET=SPR_LAT
485, 13
*ELEMENT, TYPE=SPRING1, ELSET=SPR_AX
214, 14
*ELEMENT, TYPE=SPRING1, ELSET=SPR_VERT
350, 14
*ELEMENT, TYPE=SPRING1, ELSET=SPR_LAT
486, 14
*ELEMENT, TYPE=SPRING1, ELSET=SPR_AX
215, 15
*ELEMENT, TYPE=SPRING1, ELSET=SPR_VERT
351, 15
*ELEMENT, TYPE=SPRING1, ELSET=SPR_LAT
487, 15
*ELEMENT, TYPE=SPRING1, ELSET=SPR_AX
216, 16
*ELEMENT, TYPE=SPRING1, ELSET=SPR_VERT
352, 16
*ELEMENT, TYPE=SPRING1, ELSET=SPR_LAT
488, 16
*ELEMENT, TYPE=SPRING1, ELSET=SPR_AX
217, 17
*ELEMENT, TYPE=SPRING1, ELSET=SPR_VERT
353, 17
*ELEMENT, TYPE=SPRING1, ELSET=SPR_LAT
489, 17
*ELEMENT, TYPE=SPRING1, ELSET=SPR_AX
218, 18
*ELEMENT, TYPE=SPRING1, ELSET=SPR_VERT
354, 18
*ELEMENT, TYPE=SPRING1, ELSET=SPR_LAT
490, 18
*ELEMENT, TYPE=SPRING1, ELSET=SPR_AX
219, 19
*ELEMENT, TYPE=SPRING1, ELSET=SPR_VERT
355, 19
*ELEMENT, TYPE=SPRING1, ELSET=SPR_LAT
491, 19
*ELEMENT, TYPE=SPRING1, ELSET=SPR_AX
220, 20
*ELEMENT, TYPE=SPRING1, ELSET=SPR_VERT
356, 20
*ELEMENT, TYPE=SPRING1, ELSET=SPR_LAT
492, 20
*ELEMENT, TYPE=SPRING1, ELSET=SPR_AX
221, 21
*ELEMENT, TYPE=SPRING1, ELSET=SPR_VERT
357, 21
*ELEMENT, TYPE=SPRING1, ELSET=SPR_LAT
493, 21
*ELEMENT, TYPE=SPRING1, ELSET=SPR_AX
222, 22
*ELEMENT, TYPE=SPRING1, ELSET=SPR_VERT
358, 22
*ELEMENT, TYPE=SPRING1, ELSET=SPR_LAT
494, 22
*ELEMENT, TYPE=SPRING1, ELSET=SPR_AX
223, 23
*ELEMENT, TYPE=SPRING1, ELSET=SPR_VERT
359, 23
*ELEMENT, TYPE=SPRING1, ELSET=SPR_LAT
495, 23
*ELEMENT, TYPE=SPRING1, ELSET=SPR_AX
224, 24
*ELEMENT, TYPE=SPRING1, ELSET=SPR_VERT
360, 24
*ELEMENT, TYPE=SPRING1, ELSET=SPR_LAT
496, 24
*ELEMENT, TYPE=SPRING1, ELSET=SPR_AX
225, 25
*ELEMENT, TYPE=SPRING1, ELSET=SPR_VERT
361, 25
*ELEMENT, TYPE=SPRING1, ELSET=SPR_LAT
497, 25
*ELEMENT, TYPE=SPRING1, ELSET=SPR_AX
226, 26
*ELEMENT, TYPE=SPRING1, ELSET=SPR_VERT
362, 26
*ELEMENT, TYPE=SPRING1, ELSET=SPR_LAT
498, 26
*ELEMENT, TYPE=SPRING1, ELSET=SPR_AX
227, 27
*ELEMENT, TYPE=SPRING1, ELSET=SPR_VERT
363, 27
*ELEMENT, TYPE=SPRING1, ELSET=SPR_LAT
499, 27
*ELEMENT, TYPE=SPRING1, ELSET=SPR_AX
228, 28
*ELEMENT, TYPE=SPRING1, ELSET=SPR_VERT
364, 28
*ELEMENT, TYPE=SPRING1, ELSET=SPR_LAT
500, 28
*ELEMENT, TYPE=SPRING1, ELSET=SPR_AX
229, 29
*ELEMENT, TYPE=SPRING1, ELSET=SPR_VERT
365, 29
*ELEMENT, TYPE=SPRING1, ELSET=SPR_LAT
501, 29
*ELEMENT, TYPE=SPRING1, ELSET=SPR_AX
230, 30
*ELEMENT, TYPE=SPRING1, ELSET=SPR_VERT
366, 30
*ELEMENT, TYPE=SPRING1, ELSET=SPR_LAT
502, 30
*ELEMENT, TYPE=SPRING1, ELSET=SPR_AX
231, 31
*ELEMENT, TYPE=SPRING1, ELSET=SPR_VERT
367, 31
*ELEMENT, TYPE=SPRING1, ELSET=SPR_LAT
503, 31
*ELEMENT, TYPE=SPRING1, ELSET=SPR_AX
232, 32
*ELEMENT, TYPE=SPRING1, ELSET=SPR_VERT
368, 32
*ELEMENT, TYPE=SPRING1, ELSET=SPR_LAT
504, 32
*ELEMENT, TYPE=SPRING1, ELSET=SPR_AX
233, 33
*ELEMENT, TYPE=SPRING1, ELSET=SPR_VERT
369, 33
*ELEMENT, TYPE=SPRING1, ELSET=SPR_LAT
505, 33
*ELEMENT, TYPE=SPRING1, ELSET=SPR_AX
234, 34
*ELEMENT, TYPE=SPRING1, ELSET=SPR_VERT
370, 34
*ELEMENT, TYPE=SPRING1, ELSET=SPR_LAT
506, 34
*ELEMENT, TYPE=SPRING1, ELSET=SPR_AX
235, 35
*ELEMENT, TYPE=SPRING1, ELSET=SPR_VERT
371, 35
*ELEMENT, TYPE=SPRING1, ELSET=SPR_LAT
507, 35
*ELEMENT, TYPE=SPRING1, ELSET=SPR_AX
236, 36
*ELEMENT, TYPE=SPRING1, ELSET=SPR_VERT
372, 36
*ELEMENT, TYPE=SPRING1, ELSET=SPR_LAT
508, 36
*ELEMENT, TYPE=SPRING1, ELSET=SPR_AX
237, 37
*ELEMENT, TYPE=SPRING1, ELSET=SPR_VERT
373, 37
*ELEMENT, TYPE=SPRING1, ELSET=SPR_LAT
509, 37
*ELEMENT, TYPE=SPRING1, ELSET=SPR_AX
238, 38
*ELEMENT, TYPE=SPRING1, ELSET=SPR_VERT
374, 38
*ELEMENT, TYPE=SPRING1, ELSET=SPR_LAT
510, 38
*ELEMENT, TYPE=SPRING1, ELSET=SPR_AX
239, 39
*ELEMENT, TYPE=SPRING1, ELSET=SPR_VERT
375, 39
*ELEMENT, TYPE=SPRING1, ELSET=SPR_LAT
511, 39
*ELEMENT, TYPE=SPRING1, ELSET=SPR_AX
240, 40
*ELEMENT, TYPE=SPRING1, ELSET=SPR_VERT
376, 40
*ELEMENT, TYPE=SPRING1, ELSET=SPR_LAT
512, 40
*ELEMENT, TYPE=SPRING1, ELSET=SPR_AX
241, 41
*ELEMENT, TYPE=SPRING1, ELSET=SPR_VERT
377, 41
*ELEMENT, TYPE=SPRING1, ELSET=SPR_LAT
513, 41
*ELEMENT, TYPE=SPRING1, ELSET=SPR_AX
242, 42
*ELEMENT, TYPE=SPRING1, ELSET=SPR_VERT
378, 42
*ELEMENT, TYPE=SPRING1, ELSET=SPR_LAT
514, 42
*ELEMENT, TYPE=SPRING1, ELSET=SPR_AX
243, 43
*ELEMENT, TYPE=SPRING1, ELSET=SPR_VERT
379, 43
*ELEMENT, TYPE=SPRING1, ELSET=SPR_LAT
515, 43
*ELEMENT, TYPE=SPRING1, ELSET=SPR_AX
244, 44
*ELEMENT, TYPE=SPRING1, ELSET=SPR_VERT
380, 44
*ELEMENT, TYPE=SPRING1, ELSET=SPR_LAT
516, 44
*ELEMENT, TYPE=SPRING1, ELSET=SPR_AX
245, 45
*ELEMENT, TYPE=SPRING1, ELSET=SPR_VERT
381, 45
*ELEMENT, TYPE=SPRING1, ELSET=SPR_LAT
517, 45
*ELEMENT, TYPE=SPRING1, ELSET=SPR_AX
246, 46
*ELEMENT, TYPE=SPRING1, ELSET=SPR_VERT
382, 46
*ELEMENT, TYPE=SPRING1, ELSET=SPR_LAT
518, 46
*ELEMENT, TYPE=SPRING1, ELSET=SPR_AX
247, 47
*ELEMENT, TYPE=SPRING1, ELSET=SPR_VERT
383, 47
*ELEMENT, TYPE=SPRING1, ELSET=SPR_LAT
519, 47
*ELEMENT, TYPE=SPRING1, ELSET=SPR_AX
248, 48
*ELEMENT, TYPE=SPRING1, ELSET=SPR_VERT
384, 48
*ELEMENT, TYPE=SPRING1, ELSET=SPR_LAT
520, 48
*ELEMENT, TYPE=SPRING1, ELSET=SPR_AX
249, 49
*ELEMENT, TYPE=SPRING1, ELSET=SPR_VERT
385, 49
*ELEMENT, TYPE=SPRING1, ELSET=SPR_LAT
521, 49
*ELEMENT, TYPE=SPRING1, ELSET=SPR_AX
250, 50
*ELEMENT, TYPE=SPRING1, ELSET=SPR_VERT
386, 50
*ELEMENT, TYPE=SPRING1, ELSET=SPR_LAT
522, 50
*ELEMENT, TYPE=SPRING1, ELSET=SPR_AX
251, 51
*ELEMENT, TYPE=SPRING1, ELSET=SPR_VERT
387, 51
*ELEMENT, TYPE=SPRING1, ELSET=SPR_LAT
523, 51
*ELEMENT, TYPE=SPRING1, ELSET=SPR_AX
252, 52
*ELEMENT, TYPE=SPRING1, ELSET=SPR_VERT
388, 52
*ELEMENT, TYPE=SPRING1, ELSET=SPR_LAT
524, 52
*ELEMENT, TYPE=SPRING1, ELSET=SPR_AX
253, 53
*ELEMENT, TYPE=SPRING1, ELSET=SPR_VERT
389, 53
*ELEMENT, TYPE=SPRING1, ELSET=SPR_LAT
525, 53
*ELEMENT, TYPE=SPRING1, ELSET=SPR_AX
254, 54
*ELEMENT, TYPE=SPRING1, ELSET=SPR_VERT
390, 54
*ELEMENT, TYPE=SPRING1, ELSET=SPR_LAT
526, 54
*ELEMENT, TYPE=SPRING1, ELSET=SPR_AX
255, 55
*ELEMENT, TYPE=SPRING1, ELSET=SPR_VERT
391, 55
*ELEMENT, TYPE=SPRING1, ELSET=SPR_LAT
527, 55
*ELEMENT, TYPE=SPRING1, ELSET=SPR_AX
256, 56
*ELEMENT, TYPE=SPRING1, ELSET=SPR_VERT
392, 56
*ELEMENT, TYPE=SPRING1, ELSET=SPR_LAT
528, 56
*ELEMENT, TYPE=SPRING1, ELSET=SPR_AX
257, 57
*ELEMENT, TYPE=SPRING1, ELSET=SPR_VERT
393, 57
*ELEMENT, TYPE=SPRING1, ELSET=SPR_LAT
529, 57
*ELEMENT, TYPE=SPRING1, ELSET=SPR_AX
258, 58
*ELEMENT, TYPE=SPRING1, ELSET=SPR_VERT
394, 58
*ELEMENT, TYPE=SPRING1, ELSET=SPR_LAT
530, 58
*ELEMENT, TYPE=SPRING1, ELSET=SPR_AX
259, 59
*ELEMENT, TYPE=SPRING1, ELSET=SPR_VERT
395, 59
*ELEMENT, TYPE=SPRING1, ELSET=SPR_LAT
531, 59
*ELEMENT, TYPE=SPRING1, ELSET=SPR_AX
260, 60
*ELEMENT, TYPE=SPRING1, ELSET=SPR_VERT
396, 60
*ELEMENT, TYPE=SPRING1, ELSET=SPR_LAT
532, 60
*ELEMENT, TYPE=SPRING1, ELSET=SPR_AX
261, 61
*ELEMENT, TYPE=SPRING1, ELSET=SPR_VERT
397, 61
*ELEMENT, TYPE=SPRING1, ELSET=SPR_LAT
533, 61
*ELEMENT, TYPE=SPRING1, ELSET=SPR_AX
262, 62
*ELEMENT, TYPE=SPRING1, ELSET=SPR_VERT
398, 62
*ELEMENT, TYPE=SPRING1, ELSET=SPR_LAT
534, 62
*ELEMENT, TYPE=SPRING1, ELSET=SPR_AX
263, 75
*ELEMENT, TYPE=SPRING1, ELSET=SPR_VERT
399, 75
*ELEMENT, TYPE=SPRING1, ELSET=SPR_LAT
535, 75
*ELEMENT, TYPE=SPRING1, ELSET=SPR_AX
264, 76
*ELEMENT, TYPE=SPRING1, ELSET=SPR_VERT
400, 76
*ELEMENT, TYPE=SPRING1, ELSET=SPR_LAT
536, 76
*ELEMENT, TYPE=SPRING1, ELSET=SPR_AX
265, 77
*ELEMENT, TYPE=SPRING1, ELSET=SPR_VERT
401, 77
*ELEMENT, TYPE=SPRING1, ELSET=SPR_LAT
537, 77
*ELEMENT, TYPE=SPRING1, ELSET=SPR_AX
266, 78
*ELEMENT, TYPE=SPRING1, ELSET=SPR_VERT
402, 78
*ELEMENT, TYPE=SPRING1, ELSET=SPR_LAT
538, 78
*ELEMENT, TYPE=SPRING1, ELSET=SPR_AX
267, 79
*ELEMENT, TYPE=SPRING1, ELSET=SPR_VERT
403, 79
*ELEMENT, TYPE=SPRING1, ELSET=SPR_LAT
539, 79
*ELEMENT, TYPE=SPRING1, ELSET=SPR_AX
268, 80
*ELEMENT, TYPE=SPRING1, ELSET=SPR_VERT
404, 80
*ELEMENT, TYPE=SPRING1, ELSET=SPR_LAT
540, 80
*ELEMENT, TYPE=SPRING1, ELSET=SPR_AX
269, 122
*ELEMENT, TYPE=SPRING1, ELSET=SPR_VERT
405, 122
*ELEMENT, TYPE=SPRING1, ELSET=SPR_LAT
541, 122
*ELEMENT, TYPE=SPRING1, ELSET=SPR_AX
270, 123
*ELEMENT, TYPE=SPRING1, ELSET=SPR_VERT
406, 123
*ELEMENT, TYPE=SPRING1, ELSET=SPR_LAT
542, 123
*ELEMENT, TYPE=SPRING1, ELSET=SPR_AX
271, 124
*ELEMENT, TYPE=SPRING1, ELSET=SPR_VERT
407, 124
*ELEMENT, TYPE=SPRING1, ELSET=SPR_LAT
543, 124
*ELEMENT, TYPE=SPRING1, ELSET=SPR_AX
272, 125
*ELEMENT, TYPE=SPRING1, ELSET=SPR_VERT
408, 125
*ELEMENT, TYPE=SPRING1, ELSET=SPR_LAT
544, 125
*ELEMENT, TYPE=SPRING1, ELSET=SPR_AX
273, 126
*ELEMENT, TYPE=SPRING1, ELSET=SPR_VERT
409, 126
*ELEMENT, TYPE=SPRING1, ELSET=SPR_LAT
545, 126
*ELEMENT, TYPE=SPRING1, ELSET=SPR_AX
274, 127
*ELEMENT, TYPE=SPRING1, ELSET=SPR_VERT
410, 127
*ELEMENT, TYPE=SPRING1, ELSET=SPR_LAT
546, 127
*ELEMENT, TYPE=SPRING1, ELSET=SPR_AX
275, 140
*ELEMENT, TYPE=SPRING1, ELSET=SPR_VERT
411, 140
*ELEMENT, TYPE=SPRING1, ELSET=SPR_LAT
547, 140
*ELEMENT, TYPE=SPRING1, ELSET=SPR_AX
276, 141
*ELEMENT, TYPE=SPRING1, ELSET=SPR_VERT
412, 141
*ELEMENT, TYPE=SPRING1, ELSET=SPR_LAT
548, 141
*ELEMENT, TYPE=SPRING1, ELSET=SPR_AX
277, 142
*ELEMENT, TYPE=SPRING1, ELSET=SPR_VERT
413, 142
*ELEMENT, TYPE=SPRING1, ELSET=SPR_LAT
549, 142
*ELEMENT, TYPE=SPRING1, ELSET=SPR_AX
278, 143
*ELEMENT, TYPE=SPRING1, ELSET=SPR_VERT
414, 143
*ELEMENT, TYPE=SPRING1, ELSET=SPR_LAT
550, 143
*ELEMENT, TYPE=SPRING1, ELSET=SPR_AX
279, 144
*ELEMENT, TYPE=SPRING1, ELSET=SPR_VERT
415, 144
*ELEMENT, TYPE=SPRING1, ELSET=SPR_LAT
551, 144
*ELEMENT, TYPE=SPRING1, ELSET=SPR_AX
280, 145
*ELEMENT, TYPE=SPRING1, ELSET=SPR_VERT
416, 145
*ELEMENT, TYPE=SPRING1, ELSET=SPR_LAT
552, 145
*ELEMENT, TYPE=SPRING1, ELSET=SPR_AX
281, 146
*ELEMENT, TYPE=SPRING1, ELSET=SPR_VERT
417, 146
*ELEMENT, TYPE=SPRING1, ELSET=SPR_LAT
553, 146
*ELEMENT, TYPE=SPRING1, ELSET=SPR_AX
282, 147
*ELEMENT, TYPE=SPRING1, ELSET=SPR_VERT
418, 147
*ELEMENT, TYPE=SPRING1, ELSET=SPR_LAT
554, 147
*ELEMENT, TYPE=SPRING1, ELSET=SPR_AX
283, 148
*ELEMENT, TYPE=SPRING1, ELSET=SPR_VERT
419, 148
*ELEMENT, TYPE=SPRING1, ELSET=SPR_LAT
555, 148
*ELEMENT, TYPE=SPRING1, ELSET=SPR_AX
284, 149
*ELEMENT, TYPE=SPRING1, ELSET=SPR_VERT
420, 149
*ELEMENT, TYPE=SPRING1, ELSET=SPR_LAT
556, 149
*ELEMENT, TYPE=SPRING1, ELSET=SPR_AX
285, 150
*ELEMENT, TYPE=SPRING1, ELSET=SPR_VERT
421, 150
*ELEMENT, TYPE=SPRING1, ELSET=SPR_LAT
557, 150
*ELEMENT, TYPE=SPRING1, ELSET=SPR_AX
286, 151
*ELEMENT, TYPE=SPRING1, ELSET=SPR_VERT
422, 151
*ELEMENT, TYPE=SPRING1, ELSET=SPR_LAT
558, 151
*ELEMENT, TYPE=SPRING1, ELSET=SPR_AX
287, 152
*ELEMENT, TYPE=SPRING1, ELSET=SPR_VERT
423, 152
*ELEMENT, TYPE=SPRING1, ELSET=SPR_LAT
559, 152
*ELEMENT, TYPE=SPRING1, ELSET=SPR_AX
288, 153
*ELEMENT, TYPE=SPRING1, ELSET=SPR_VERT
424, 153
*ELEMENT, TYPE=SPRING1, ELSET=SPR_LAT
560, 153
*ELEMENT, TYPE=SPRING1, ELSET=SPR_AX
289, 154
*ELEMENT, TYPE=SPRING1, ELSET=SPR_VERT
425, 154
*ELEMENT, TYPE=SPRING1, ELSET=SPR_LAT
561, 154
*ELEMENT, TYPE=SPRING1, ELSET=SPR_AX
290, 155
*ELEMENT, TYPE=SPRING1, ELSET=SPR_VERT
426, 155
*ELEMENT, TYPE=SPRING1, ELSET=SPR_LAT
562, 155
*ELEMENT, TYPE=SPRING1, ELSET=SPR_AX
291, 156
*ELEMENT, TYPE=SPRING1, ELSET=SPR_VERT
427, 156
*ELEMENT, TYPE=SPRING1, ELSET=SPR_LAT
563, 156
*ELEMENT, TYPE=SPRING1, ELSET=SPR_AX
292, 157
*ELEMENT, TYPE=SPRING1, ELSET=SPR_VERT
428, 157
*ELEMENT, TYPE=SPRING1, ELSET=SPR_LAT
564, 157
*ELEMENT, TYPE=SPRING1, ELSET=SPR_AX
293, 158
*ELEMENT, TYPE=SPRING1, ELSET=SPR_VERT
429, 158
*ELEMENT, TYPE=SPRING1, ELSET=SPR_LAT
565, 158
*ELEMENT, TYPE=SPRING1, ELSET=SPR_AX
294, 159
*ELEMENT, TYPE=SPRING1, ELSET=SPR_VERT
430, 159
*ELEMENT, TYPE=SPRING1, ELSET=SPR_LAT
566, 159
*ELEMENT, TYPE=SPRING1, ELSET=SPR_AX
295, 160
*ELEMENT, TYPE=SPRING1, ELSET=SPR_VERT
431, 160
*ELEMENT, TYPE=SPRING1, ELSET=SPR_LAT
567, 160
*ELEMENT, TYPE=SPRING1, ELSET=SPR_AX
296, 161
*ELEMENT, TYPE=SPRING1, ELSET=SPR_VERT
432, 161
*ELEMENT, TYPE=SPRING1, ELSET=SPR_LAT
568, 161
*ELEMENT, TYPE=SPRING1, ELSET=SPR_AX
297, 162
*ELEMENT, TYPE=SPRING1, ELSET=SPR_VERT
433, 162
*ELEMENT, TYPE=SPRING1, ELSET=SPR_LAT
569, 162
*ELEMENT, TYPE=SPRING1, ELSET=SPR_AX
298, 163
*ELEMENT, TYPE=SPRING1, ELSET=SPR_VERT
434, 163
*ELEMENT, TYPE=SPRING1, ELSET=SPR_LAT
570, 163
*ELEMENT, TYPE=SPRING1, ELSET=SPR_AX
299, 164
*ELEMENT, TYPE=SPRING1, ELSET=SPR_VERT
435, 164
*ELEMENT, TYPE=SPRING1, ELSET=SPR_LAT
571, 164
*ELEMENT, TYPE=SPRING1, ELSET=SPR_AX
300, 165
*ELEMENT, TYPE=SPRING1, ELSET=SPR_VERT
436, 165
*ELEMENT, TYPE=SPRING1, ELSET=SPR_LAT
572, 165
*ELEMENT, TYPE=SPRING1, ELSET=SPR_AX
301, 166
*ELEMENT, TYPE=SPRING1, ELSET=SPR_VERT
437, 166
*ELEMENT, TYPE=SPRING1, ELSET=SPR_LAT
573, 166
*ELEMENT, TYPE=SPRING1, ELSET=SPR_AX
302, 167
*ELEMENT, TYPE=SPRING1, ELSET=SPR_VERT
438, 167
*ELEMENT, TYPE=SPRING1, ELSET=SPR_LAT
574, 167
*ELEMENT, TYPE=SPRING1, ELSET=SPR_AX
303, 168
*ELEMENT, TYPE=SPRING1, ELSET=SPR_VERT
439, 168
*ELEMENT, TYPE=SPRING1, ELSET=SPR_LAT
575, 168
*ELEMENT, TYPE=SPRING1, ELSET=SPR_AX
304, 169
*ELEMENT, TYPE=SPRING1, ELSET=SPR_VERT
440, 169
*ELEMENT, TYPE=SPRING1, ELSET=SPR_LAT
576, 169
*ELEMENT, TYPE=SPRING1, ELSET=SPR_AX
305, 170
*ELEMENT, TYPE=SPRING1, ELSET=SPR_VERT
441, 170
*ELEMENT, TYPE=SPRING1, ELSET=SPR_LAT
577, 170
*ELEMENT, TYPE=SPRING1, ELSET=SPR_AX
306, 171
*ELEMENT, TYPE=SPRING1, ELSET=SPR_VERT
442, 171
*ELEMENT, TYPE=SPRING1, ELSET=SPR_LAT
578, 171
*ELEMENT, TYPE=SPRING1, ELSET=SPR_AX
307, 172
*ELEMENT, TYPE=SPRING1, ELSET=SPR_VERT
443, 172
*ELEMENT, TYPE=SPRING1, ELSET=SPR_LAT
579, 172
*ELEMENT, TYPE=SPRING1, ELSET=SPR_AX
308, 173
*ELEMENT, TYPE=SPRING1, ELSET=SPR_VERT
444, 173
*ELEMENT, TYPE=SPRING1, ELSET=SPR_LAT
580, 173
*ELEMENT, TYPE=SPRING1, ELSET=SPR_AX
309, 174
*ELEMENT, TYPE=SPRING1, ELSET=SPR_VERT
445, 174
*ELEMENT, TYPE=SPRING1, ELSET=SPR_LAT
581, 174
*ELEMENT, TYPE=SPRING1, ELSET=SPR_AX
310, 175
*ELEMENT, TYPE=SPRING1, ELSET=SPR_VERT
446, 175
*ELEMENT, TYPE=SPRING1, ELSET=SPR_LAT
582, 175
*ELEMENT, TYPE=SPRING1, ELSET=SPR_AX
311, 176
*ELEMENT, TYPE=SPRING1, ELSET=SPR_VERT
447, 176
*ELEMENT, TYPE=SPRING1, ELSET=SPR_LAT
583, 176
*ELEMENT, TYPE=SPRING1, ELSET=SPR_AX
312, 177
*ELEMENT, TYPE=SPRING1, ELSET=SPR_VERT
448, 177
*ELEMENT, TYPE=SPRING1, ELSET=SPR_LAT
584, 177
*ELEMENT, TYPE=SPRING1, ELSET=SPR_AX
313, 178
*ELEMENT, TYPE=SPRING1, ELSET=SPR_VERT
449, 178
*ELEMENT, TYPE=SPRING1, ELSET=SPR_LAT
585, 178
*ELEMENT, TYPE=SPRING1, ELSET=SPR_AX
314, 179
*ELEMENT, TYPE=SPRING1, ELSET=SPR_VERT
450, 179
*ELEMENT, TYPE=SPRING1, ELSET=SPR_LAT
586, 179
*ELEMENT, TYPE=SPRING1, ELSET=SPR_AX
315, 180
*ELEMENT, TYPE=SPRING1, ELSET=SPR_VERT
451, 180
*ELEMENT, TYPE=SPRING1, ELSET=SPR_LAT
587, 180
*ELEMENT, TYPE=SPRING1, ELSET=SPR_AX
316, 181
*ELEMENT, TYPE=SPRING1, ELSET=SPR_VERT
452, 181
*ELEMENT, TYPE=SPRING1, ELSET=SPR_LAT
588, 181
*ELEMENT, TYPE=SPRING1, ELSET=SPR_AX
317, 182
*ELEMENT, TYPE=SPRING1, ELSET=SPR_VERT
453, 182
*ELEMENT, TYPE=SPRING1, ELSET=SPR_LAT
589, 182
*ELEMENT, TYPE=SPRING1, ELSET=SPR_AX
318, 183
*ELEMENT, TYPE=SPRING1, ELSET=SPR_VERT
454, 183
*ELEMENT, TYPE=SPRING1, ELSET=SPR_LAT
590, 183
*ELEMENT, TYPE=SPRING1, ELSET=SPR_AX
319, 184
*ELEMENT, TYPE=SPRING1, ELSET=SPR_VERT
455, 184
*ELEMENT, TYPE=SPRING1, ELSET=SPR_LAT
591, 184
*ELEMENT, TYPE=SPRING1, ELSET=SPR_AX
320, 185
*ELEMENT, TYPE=SPRING1, ELSET=SPR_VERT
456, 185
*ELEMENT, TYPE=SPRING1, ELSET=SPR_LAT
592, 185
*ELEMENT, TYPE=SPRING1, ELSET=SPR_AX
321, 186
*ELEMENT, TYPE=SPRING1, ELSET=SPR_VERT
457, 186
*ELEMENT, TYPE=SPRING1, ELSET=SPR_LAT
593, 186
*ELEMENT, TYPE=SPRING1, ELSET=SPR_AX
322, 187
*ELEMENT, TYPE=SPRING1, ELSET=SPR_VERT
458, 187
*ELEMENT, TYPE=SPRING1, ELSET=SPR_LAT
594, 187
*ELEMENT, TYPE=SPRING1, ELSET=SPR_AX
323, 188
*ELEMENT, TYPE=SPRING1, ELSET=SPR_VERT
459, 188
*ELEMENT, TYPE=SPRING1, ELSET=SPR_LAT
595, 188
*ELEMENT, TYPE=SPRING1, ELSET=SPR_AX
324, 189
*ELEMENT, TYPE=SPRING1, ELSET=SPR_VERT
460, 189
*ELEMENT, TYPE=SPRING1, ELSET=SPR_LAT
596, 189
*ELEMENT, TYPE=SPRING1, ELSET=SPR_AX
325, 190
*ELEMENT, TYPE=SPRING1, ELSET=SPR_VERT
461, 190
*ELEMENT, TYPE=SPRING1, ELSET=SPR_LAT
597, 190
*ELEMENT, TYPE=SPRING1, ELSET=SPR_AX
326, 191
*ELEMENT, TYPE=SPRING1, ELSET=SPR_VERT
462, 191
*ELEMENT, TYPE=SPRING1, ELSET=SPR_LAT
598, 191
*ELEMENT, TYPE=SPRING1, ELSET=SPR_AX
327, 192
*ELEMENT, TYPE=SPRING1, ELSET=SPR_VERT
463, 192
*ELEMENT, TYPE=SPRING1, ELSET=SPR_LAT
599, 192
*ELEMENT, TYPE=SPRING1, ELSET=SPR_AX
328, 193
*ELEMENT, TYPE=SPRING1, ELSET=SPR_VERT
464, 193
*ELEMENT, TYPE=SPRING1, ELSET=SPR_LAT
600, 193
*ELEMENT, TYPE=SPRING1, ELSET=SPR_AX
329, 194
*ELEMENT, TYPE=SPRING1, ELSET=SPR_VERT
465, 194
*ELEMENT, TYPE=SPRING1, ELSET=SPR_LAT
601, 194
*ELEMENT, TYPE=SPRING1, ELSET=SPR_AX
330, 195
*ELEMENT, TYPE=SPRING1, ELSET=SPR_VERT
466, 195
*ELEMENT, TYPE=SPRING1, ELSET=SPR_LAT
602, 195
*ELEMENT, TYPE=SPRING1, ELSET=SPR_AX
331, 196
*ELEMENT, TYPE=SPRING1, ELSET=SPR_VERT
467, 196
*ELEMENT, TYPE=SPRING1, ELSET=SPR_LAT
603, 196
*ELEMENT, TYPE=SPRING1, ELSET=SPR_AX
332, 197
*ELEMENT, TYPE=SPRING1, ELSET=SPR_VERT
468, 197
*ELEMENT, TYPE=SPRING1, ELSET=SPR_LAT
604, 197
*ELEMENT, TYPE=SPRING1, ELSET=SPR_AX
333, 198
*ELEMENT, TYPE=SPRING1, ELSET=SPR_VERT
469, 198
*ELEMENT, TYPE=SPRING1, ELSET=SPR_LAT
605, 198
*ELEMENT, TYPE=SPRING1, ELSET=SPR_AX
334, 199
*ELEMENT, TYPE=SPRING1, ELSET=SPR_VERT
470, 199
*ELEMENT, TYPE=SPRING1, ELSET=SPR_LAT
606, 199
*ELEMENT, TYPE=SPRING1, ELSET=SPR_AX
335, 200
*ELEMENT, TYPE=SPRING1, ELSET=SPR_VERT
471, 200
*ELEMENT, TYPE=SPRING1, ELSET=SPR_LAT
607, 200
*ELEMENT, TYPE=SPRING1, ELSET=SPR_AX
336, 201
*ELEMENT, TYPE=SPRING1, ELSET=SPR_VERT
472, 201
*ELEMENT, TYPE=SPRING1, ELSET=SPR_LAT
608, 201
*SPRING, ELSET=SPR_AX
1
1.000e+06
*SPRING, ELSET=SPR_VERT
2
2.000e+06
*SPRING, ELSET=SPR_LAT
3
3.000e+06
*AQUA
-150, 0., 9.80665, 1025
*INITIAL CONDITIONS, TYPE=STRESS
PIPE, 3.455e+07
*STEP, INC=100, NLGEOM 
INITIAL SET UP
*STATIC
0.0001, 1.0, 1.0E-9   
*CONTROLS, ANALYSIS=DISCONTINUOUS
*BOUNDARY, OP=NEW 
1, 1, 6 
201, 2, 3
PIPE, 1, 3
*OUTPUT, FIELD, FREQ=10, VARIABLE=PRESELECT 
**   
*ELEMENT OUTPUT, ELSET=PIPE     
SF, SE, ESF1, TEMP
*NODE OUTPUT, NSET=PIPE
U, COORD
** 
*OUTPUT, HISTORY, FREQ=0, VARIABLE=PRESELECT
**
*END STEP 
*STEP, NLGEOM, UNSYMM=YES, INC=2000
FREQUENCY EXTRACTION
*FREQUENCY, EIGENSOLVER=LANCZOS
20
**
*BOUNDARY, OP=NEW
1, 1, 6
201, 2, 3
PIPE, 4, 4
*D ADDED MASS
1, FI, 0.1683, 2.28
2, FI, 0.1683, 2.28
3, FI, 0.1683, 2.28
4, FI, 0.1683, 2.28
5, FI, 0.1683, 2.28
6, FI, 0.1683, 2.28
7, FI, 0.1683, 2.28
8, FI, 0.1683, 2.28
9, FI, 0.1683, 2.28
10, FI, 0.1683, 2.28
11, FI, 0.1683, 2.28
12, FI, 0.1683, 2.28
13, FI, 0.1683, 2.28
14, FI, 0.1683, 2.28
15, FI, 0.1683, 2.28
16, FI, 0.1683, 2.28
17, FI, 0.1683, 2.28
18, FI, 0.1683, 2.28
19, FI, 0.1683, 2.28
20, FI, 0.1683, 2.28
** ... 180 like lines cut
*NODE PRINT, GLOBAL=YES, NSET=PIPE, FREQ=999
U,
*OUTPUT, FIELD, VARIABLE=ALL, FREQUENCY=999
*MODAL FILE
*END STEP
