1

   Abaqus 6.14-4                                  Date 08-Aug-2023   Time 15:12:08
   For use by T_EN NET SAS under license from Dassault Systemes or its subsidiary.



                         The Abaqus Software is a product of:

                           Dassault Systemes SIMULIA Corp.
                           1301 Atwood Avenue, Suite 101W
                              Johnston, RI 02919, USA
 


                   The Abaqus Software is available only under license
                   from Dassault Systemes or its subsidiary and may be
                   used or reproduced only in accordance with the terms
                   of such license.
 
                          On machine WSS4LX9474 
                          you are authorized to run
                          Abaqus/Standard until 14-Nov-2023

                          Your site id is: 200000000184056 


 
                    For assistance or any other information you may
                    obtain contact information for your local office
                    from the world wide web at:

                      http://www.3ds.com/products/simulia/locations/

 
                * * * * * * * * * * * * * * * * * * * * * * * * * * * * * * 
                *                                                         * 
                *                   *****************                     * 
                *                   *  N O T I C E  *                     * 
                *                   *****************                     * 
                *                                                         * 
                *                                                         * 
                *                    Abaqus 6.14-4                        * 
                *                                                         * 
                *          BUILD ID: 2015_06_11-21.41.13 135079           * 
                *                                                         * 
                *                                                         * 
                *  Please make sure you are using release 6.14 manuals    * 
                *  plus the notes accompanying this release.              * 
                *                                                         * 
                *                                                         * 
                *                                                         * 
                *                                                         * 
                * * * * * * * * * * * * * * * * * * * * * * * * * * * * * * 


 



     PROCESSING PART, INSTANCE, AND ASSEMBLY INFORMATION
   *******************************************************


     END PROCESSING PART, INSTANCE, AND ASSEMBLY INFORMATION
   ***********************************************************




     OPTIONS BEING PROCESSED
   ***************************


  *INCLUDE, INPUT=in_place_nodes.dat

  *** INPUT DATA IS READ FROM FILE in_place_nodes.dat                                                                                                                                                                                                                                             

  *NODE, NSET=PIPE
  *ELEMENT, ELSET=PIPE, TYPE=PIPE31H
  *ELGEN, ELSET=PIPE
  *ELEMENT, TYPE=SPRING1, ELSET=SPR_AX
  *ELEMENT, TYPE=SPRING1, ELSET=SPR_VERT
  *ELEMENT, TYPE=SPRING1, ELSET=SPR_LAT
  *ELEMENT, TYPE=SPRING1, ELSET=SPR_AX
  *ELEMENT, TYPE=SPRING1, ELSET=SPR_VERT
  *ELEMENT, TYPE=SPRING1, ELSET=SPR_LAT
  *ELEMENT, TYPE=SPRING1, ELSET=SPR_AX
  *ELEMENT, TYPE=SPRING1, ELSET=SPR_VERT
  *ELEMENT, TYPE=SPRING1, ELSET=SPR_LAT
  *ELEMENT, TYPE=SPRING1, ELSET=SPR_AX
  *ELEMENT, TYPE=SPRING1, ELSET=SPR_VERT
  *ELEMENT, TYPE=SPRING1, ELSET=SPR_LAT
  *ELEMENT, TYPE=SPRING1, ELSET=SPR_AX
  *ELEMENT, TYPE=SPRING1, ELSET=SPR_VERT
  *ELEMENT, TYPE=SPRING1, ELSET=SPR_LAT
  *ELEMENT, TYPE=SPRING1, ELSET=SPR_AX
  *ELEMENT, TYPE=SPRING1, ELSET=SPR_VERT
  *ELEMENT, TYPE=SPRING1, ELSET=SPR_LAT
  *ELEMENT, TYPE=SPRING1, ELSET=SPR_AX
  *ELEMENT, TYPE=SPRING1, ELSET=SPR_VERT
  *ELEMENT, TYPE=SPRING1, ELSET=SPR_LAT
  *ELEMENT, TYPE=SPRING1, ELSET=SPR_AX
  *ELEMENT, TYPE=SPRING1, ELSET=SPR_VERT
  *ELEMENT, TYPE=SPRING1, ELSET=SPR_LAT
  *ELEMENT, TYPE=SPRING1, ELSET=SPR_AX
  *ELEMENT, TYPE=SPRING1, ELSET=SPR_VERT
  *ELEMENT, TYPE=SPRING1, ELSET=SPR_LAT
  *ELEMENT, TYPE=SPRING1, ELSET=SPR_AX
  *ELEMENT, TYPE=SPRING1, ELSET=SPR_VERT
  *ELEMENT, TYPE=SPRING1, ELSET=SPR_LAT
  *ELEMENT, TYPE=SPRING1, ELSET=SPR_AX
  *ELEMENT, TYPE=SPRING1, ELSET=SPR_VERT
  *ELEMENT, TYPE=SPRING1, ELSET=SPR_LAT
  *ELEMENT, TYPE=SPRING1, ELSET=SPR_AX
  *ELEMENT, TYPE=SPRING1, ELSET=SPR_VERT
  *ELEMENT, TYPE=SPRING1, ELSET=SPR_LAT
  *ELEMENT, TYPE=SPRING1, ELSET=SPR_AX
  *ELEMENT, TYPE=SPRING1, ELSET=SPR_VERT
  *ELEMENT, TYPE=SPRING1, ELSET=SPR_LAT
  *ELEMENT, TYPE=SPRING1, ELSET=SPR_AX
  *ELEMENT, TYPE=SPRING1, ELSET=SPR_VERT
  *ELEMENT, TYPE=SPRING1, ELSET=SPR_LAT
  *ELEMENT, TYPE=SPRING1, ELSET=SPR_AX
  *ELEMENT, TYPE=SPRING1, ELSET=SPR_VERT
  *ELEMENT, TYPE=SPRING1, ELSET=SPR_LAT
  *ELEMENT, TYPE=SPRING1, ELSET=SPR_AX
  *ELEMENT, TYPE=SPRING1, ELSET=SPR_VERT
  *ELEMENT, TYPE=SPRING1, ELSET=SPR_LAT
  *ELEMENT, TYPE=SPRING1, ELSET=SPR_AX
  *ELEMENT, TYPE=SPRING1, ELSET=SPR_VERT
  *ELEMENT, TYPE=SPRING1, ELSET=SPR_LAT
  *ELEMENT, TYPE=SPRING1, ELSET=SPR_AX
  *ELEMENT, TYPE=SPRING1, ELSET=SPR_VERT
  *ELEMENT, TYPE=SPRING1, ELSET=SPR_LAT
  *ELEMENT, TYPE=SPRING1, ELSET=SPR_AX
  *ELEMENT, TYPE=SPRING1, ELSET=SPR_VERT
  *ELEMENT, TYPE=SPRING1, ELSET=SPR_LAT
  *ELEMENT, TYPE=SPRING1, ELSET=SPR_AX
  *ELEMENT, TYPE=SPRING1, ELSET=SPR_VERT
  *ELEMENT, TYPE=SPRING1, ELSET=SPR_LAT
  *ELEMENT, TYPE=SPRING1, ELSET=SPR_AX
  *ELEMENT, TYPE=SPRING1, ELSET=SPR_VERT
  *ELEMENT, TYPE=SPRING1, ELSET=SPR_LAT
  *ELEMENT, TYPE=SPRING1, ELSET=SPR_AX
  *ELEMENT, TYPE=SPRING1, ELSET=SPR_VERT
  *ELEMENT, TYPE=SPRING1, ELSET=SPR_LAT
  *ELEMENT, TYPE=SPRING1, ELSET=SPR_AX
  *ELEMENT, TYPE=SPRING1, ELSET=SPR_VERT
  *ELEMENT, TYPE=SPRING1, ELSET=SPR_LAT
  *ELEMENT, TYPE=SPRING1, ELSET=SPR_AX
  *ELEMENT, TYPE=SPRING1, ELSET=SPR_VERT
  *ELEMENT, TYPE=SPRING1, ELSET=SPR_LAT
  *ELEMENT, TYPE=SPRING1, ELSET=SPR_AX
  *ELEMENT, TYPE=SPRING1, ELSET=SPR_VERT
  *ELEMENT, TYPE=SPRING1, ELSET=SPR_LAT
  *ELEMENT, TYPE=SPRING1, ELSET=SPR_AX
  *ELEMENT, TYPE=SPRING1, ELSET=SPR_VERT
  *ELEMENT, TYPE=SPRING1, ELSET=SPR_LAT
  *ELEMENT, TYPE=SPRING1, ELSET=SPR_AX
  *ELEMENT, TYPE=SPRING1, ELSET=SPR_VERT
  *ELEMENT, TYPE=SPRING1, ELSET=SPR_LAT
  *ELEMENT, TYPE=SPRING1, ELSET=SPR_AX
  *ELEMENT, TYPE=SPRING1, ELSET=SPR_VERT
  *ELEMENT, TYPE=SPRING1, ELSET=SPR_LAT
  *ELEMENT, TYPE=SPRING1, ELSET=SPR_AX
  *ELEMENT, TYPE=SPRING1, ELSET=SPR_VERT
  *ELEMENT, TYPE=SPRING1, ELSET=SPR_LAT
  *ELEMENT, TYPE=SPRING1, ELSET=SPR_AX
  *ELEMENT, TYPE=SPRING1, ELSET=SPR_VERT
  *ELEMENT, TYPE=SPRING1, ELSET=SPR_LAT
  *ELEMENT, TYPE=SPRING1, ELSET=SPR_AX
  *ELEMENT, TYPE=SPRING1, ELSET=SPR_VERT
  *ELEMENT, TYPE=SPRING1, ELSET=SPR_LAT
  *ELEMENT, TYPE=SPRING1, ELSET=SPR_AX
  *ELEMENT, TYPE=SPRING1, ELSET=SPR_VERT
  *ELEMENT, TYPE=SPRING1, ELSET=SPR_LAT
  *ELEMENT, TYPE=SPRING1, ELSET=SPR_AX
  *ELEMENT, TYPE=SPRING1, ELSET=SPR_VERT
  *ELEMENT, TYPE=SPRING1, ELSET=SPR_LAT
  *ELEMENT, TYPE=SPRING1, ELSET=SPR_AX
  *ELEMENT, TYPE=SPRING1, ELSET=SPR_VERT
  *ELEMENT, TYPE=SPRING1, ELSET=SPR_LAT
  *ELEMENT, TYPE=SPRING1, ELSET=SPR_AX
  *ELEMENT, TYPE=SPRING1, ELSET=SPR_VERT
  *ELEMENT, TYPE=SPRING1, ELSET=SPR_LAT
  *ELEMENT, TYPE=SPRING1, ELSET=SPR_AX
  *ELEMENT, TYPE=SPRING1, ELSET=SPR_VERT
  *ELEMENT, TYPE=SPRING1, ELSET=SPR_LAT
  *ELEMENT, TYPE=SPRING1, ELSET=SPR_AX
  *ELEMENT, TYPE=SPRING1, ELSET=SPR_VERT
  *ELEMENT, TYPE=SPRING1, ELSET=SPR_LAT
  *ELEMENT, TYPE=SPRING1, ELSET=SPR_AX
  *ELEMENT, TYPE=SPRING1, ELSET=SPR_VERT
  *ELEMENT, TYPE=SPRING1, ELSET=SPR_LAT
  *ELEMENT, TYPE=SPRING1, ELSET=SPR_AX
  *ELEMENT, TYPE=SPRING1, ELSET=SPR_VERT
  *ELEMENT, TYPE=SPRING1, ELSET=SPR_LAT
  *ELEMENT, TYPE=SPRING1, ELSET=SPR_AX
  *ELEMENT, TYPE=SPRING1, ELSET=SPR_VERT
  *ELEMENT, TYPE=SPRING1, ELSET=SPR_LAT
  *ELEMENT, TYPE=SPRING1, ELSET=SPR_AX
  *ELEMENT, TYPE=SPRING1, ELSET=SPR_VERT
  *ELEMENT, TYPE=SPRING1, ELSET=SPR_LAT
  *ELEMENT, TYPE=SPRING1, ELSET=SPR_AX
  *ELEMENT, TYPE=SPRING1, ELSET=SPR_VERT
  *ELEMENT, TYPE=SPRING1, ELSET=SPR_LAT
  *ELEMENT, TYPE=SPRING1, ELSET=SPR_AX
  *ELEMENT, TYPE=SPRING1, ELSET=SPR_VERT
  *ELEMENT, TYPE=SPRING1, ELSET=SPR_LAT
  *ELEMENT, TYPE=SPRING1, ELSET=SPR_AX
  *ELEMENT, TYPE=SPRING1, ELSET=SPR_VERT
  *ELEMENT, TYPE=SPRING1, ELSET=SPR_LAT
  *ELEMENT, TYPE=SPRING1, ELSET=SPR_AX
  *ELEMENT, TYPE=SPRING1, ELSET=SPR_VERT
  *ELEMENT, TYPE=SPRING1, ELSET=SPR_LAT
  *ELEMENT, TYPE=SPRING1, ELSET=SPR_AX
  *ELEMENT, TYPE=SPRING1, ELSET=SPR_VERT
  *ELEMENT, TYPE=SPRING1, ELSET=SPR_LAT
  *ELEMENT, TYPE=SPRING1, ELSET=SPR_AX
  *ELEMENT, TYPE=SPRING1, ELSET=SPR_VERT
  *ELEMENT, TYPE=SPRING1, ELSET=SPR_LAT
  *ELEMENT, TYPE=SPRING1, ELSET=SPR_AX
  *ELEMENT, TYPE=SPRING1, ELSET=SPR_VERT
  *ELEMENT, TYPE=SPRING1, ELSET=SPR_LAT
  *ELEMENT, TYPE=SPRING1, ELSET=SPR_AX
  *ELEMENT, TYPE=SPRING1, ELSET=SPR_VERT
  *ELEMENT, TYPE=SPRING1, ELSET=SPR_LAT
  *ELEMENT, TYPE=SPRING1, ELSET=SPR_AX
  *ELEMENT, TYPE=SPRING1, ELSET=SPR_VERT
  *ELEMENT, TYPE=SPRING1, ELSET=SPR_LAT
  *ELEMENT, TYPE=SPRING1, ELSET=SPR_AX
  *ELEMENT, TYPE=SPRING1, ELSET=SPR_VERT
  *ELEMENT, TYPE=SPRING1, ELSET=SPR_LAT
  *ELEMENT, TYPE=SPRING1, ELSET=SPR_AX
  *ELEMENT, TYPE=SPRING1, ELSET=SPR_VERT
  *ELEMENT, TYPE=SPRING1, ELSET=SPR_LAT
  *ELEMENT, TYPE=SPRING1, ELSET=SPR_AX
  *ELEMENT, TYPE=SPRING1, ELSET=SPR_VERT
  *ELEMENT, TYPE=SPRING1, ELSET=SPR_LAT
  *ELEMENT, TYPE=SPRING1, ELSET=SPR_AX
  *ELEMENT, TYPE=SPRING1, ELSET=SPR_VERT
  *ELEMENT, TYPE=SPRING1, ELSET=SPR_LAT
  *ELEMENT, TYPE=SPRING1, ELSET=SPR_AX
  *ELEMENT, TYPE=SPRING1, ELSET=SPR_VERT
  *ELEMENT, TYPE=SPRING1, ELSET=SPR_LAT
  *ELEMENT, TYPE=SPRING1, ELSET=SPR_AX
  *ELEMENT, TYPE=SPRING1, ELSET=SPR_VERT
  *ELEMENT, TYPE=SPRING1, ELSET=SPR_LAT
  *ELEMENT, TYPE=SPRING1, ELSET=SPR_AX
  *ELEMENT, TYPE=SPRING1, ELSET=SPR_VERT
  *ELEMENT, TYPE=SPRING1, ELSET=SPR_LAT
  *ELEMENT, TYPE=SPRING1, ELSET=SPR_AX
  *ELEMENT, TYPE=SPRING1, ELSET=SPR_VERT
  *ELEMENT, TYPE=SPRING1, ELSET=SPR_LAT
  *ELEMENT, TYPE=SPRING1, ELSET=SPR_AX
  *ELEMENT, TYPE=SPRING1, ELSET=SPR_VERT
  *ELEMENT, TYPE=SPRING1, ELSET=SPR_LAT
  *ELEMENT, TYPE=SPRING1, ELSET=SPR_AX
  *ELEMENT, TYPE=SPRING1, ELSET=SPR_VERT
  *ELEMENT, TYPE=SPRING1, ELSET=SPR_LAT
  *ELEMENT, TYPE=SPRING1, ELSET=SPR_AX
  *ELEMENT, TYPE=SPRING1, ELSET=SPR_VERT
  *ELEMENT, TYPE=SPRING1, ELSET=SPR_LAT
  *ELEMENT, TYPE=SPRING1, ELSET=SPR_AX
  *ELEMENT, TYPE=SPRING1, ELSET=SPR_VERT
  *ELEMENT, TYPE=SPRING1, ELSET=SPR_LAT
  *ELEMENT, TYPE=SPRING1, ELSET=SPR_AX
  *ELEMENT, TYPE=SPRING1, ELSET=SPR_VERT
  *ELEMENT, TYPE=SPRING1, ELSET=SPR_LAT
  *ELEMENT, TYPE=SPRING1, ELSET=SPR_AX
  *ELEMENT, TYPE=SPRING1, ELSET=SPR_VERT
  *ELEMENT, TYPE=SPRING1, ELSET=SPR_LAT
  *ELEMENT, TYPE=SPRING1, ELSET=SPR_AX
  *ELEMENT, TYPE=SPRING1, ELSET=SPR_VERT
  *ELEMENT, TYPE=SPRING1, ELSET=SPR_LAT
  *ELEMENT, TYPE=SPRING1, ELSET=SPR_AX
  *ELEMENT, TYPE=SPRING1, ELSET=SPR_VERT
  *ELEMENT, TYPE=SPRING1, ELSET=SPR_LAT
  *ELEMENT, TYPE=SPRING1, ELSET=SPR_AX
  *ELEMENT, TYPE=SPRING1, ELSET=SPR_VERT
  *ELEMENT, TYPE=SPRING1, ELSET=SPR_LAT
  *ELEMENT, TYPE=SPRING1, ELSET=SPR_AX
  *ELEMENT, TYPE=SPRING1, ELSET=SPR_VERT
  *ELEMENT, TYPE=SPRING1, ELSET=SPR_LAT
  *ELEMENT, TYPE=SPRING1, ELSET=SPR_AX
  *ELEMENT, TYPE=SPRING1, ELSET=SPR_VERT
  *ELEMENT, TYPE=SPRING1, ELSET=SPR_LAT
  *ELEMENT, TYPE=SPRING1, ELSET=SPR_AX
  *ELEMENT, TYPE=SPRING1, ELSET=SPR_VERT
  *ELEMENT, TYPE=SPRING1, ELSET=SPR_LAT
  *ELEMENT, TYPE=SPRING1, ELSET=SPR_AX
  *ELEMENT, TYPE=SPRING1, ELSET=SPR_VERT
  *ELEMENT, TYPE=SPRING1, ELSET=SPR_LAT
  *ELEMENT, TYPE=SPRING1, ELSET=SPR_AX
  *ELEMENT, TYPE=SPRING1, ELSET=SPR_VERT
  *ELEMENT, TYPE=SPRING1, ELSET=SPR_LAT
  *ELEMENT, TYPE=SPRING1, ELSET=SPR_AX
  *ELEMENT, TYPE=SPRING1, ELSET=SPR_VERT
  *ELEMENT, TYPE=SPRING1, ELSET=SPR_LAT
  *ELEMENT, TYPE=SPRING1, ELSET=SPR_AX
  *ELEMENT, TYPE=SPRING1, ELSET=SPR_VERT
  *ELEMENT, TYPE=SPRING1, ELSET=SPR_LAT
  *ELEMENT, TYPE=SPRING1, ELSET=SPR_AX
  *ELEMENT, TYPE=SPRING1, ELSET=SPR_VERT
  *ELEMENT, TYPE=SPRING1, ELSET=SPR_LAT
  *ELEMENT, TYPE=SPRING1, ELSET=SPR_AX
  *ELEMENT, TYPE=SPRING1, ELSET=SPR_VERT
  *ELEMENT, TYPE=SPRING1, ELSET=SPR_LAT
  *ELEMENT, TYPE=SPRING1, ELSET=SPR_AX
  *ELEMENT, TYPE=SPRING1, ELSET=SPR_VERT
  *ELEMENT, TYPE=SPRING1, ELSET=SPR_LAT
  *ELEMENT, TYPE=SPRING1, ELSET=SPR_AX
  *ELEMENT, TYPE=SPRING1, ELSET=SPR_VERT
  *ELEMENT, TYPE=SPRING1, ELSET=SPR_LAT
  *ELEMENT, TYPE=SPRING1, ELSET=SPR_AX
  *ELEMENT, TYPE=SPRING1, ELSET=SPR_VERT
  *ELEMENT, TYPE=SPRING1, ELSET=SPR_LAT
  *ELEMENT, TYPE=SPRING1, ELSET=SPR_AX
  *ELEMENT, TYPE=SPRING1, ELSET=SPR_VERT
  *ELEMENT, TYPE=SPRING1, ELSET=SPR_LAT
  *ELEMENT, TYPE=SPRING1, ELSET=SPR_AX
  *ELEMENT, TYPE=SPRING1, ELSET=SPR_VERT
  *ELEMENT, TYPE=SPRING1, ELSET=SPR_LAT
  *ELEMENT, TYPE=SPRING1, ELSET=SPR_AX
  *ELEMENT, TYPE=SPRING1, ELSET=SPR_VERT
  *ELEMENT, TYPE=SPRING1, ELSET=SPR_LAT
  *ELEMENT, TYPE=SPRING1, ELSET=SPR_AX
  *ELEMENT, TYPE=SPRING1, ELSET=SPR_VERT
  *ELEMENT, TYPE=SPRING1, ELSET=SPR_LAT
  *ELEMENT, TYPE=SPRING1, ELSET=SPR_AX
  *ELEMENT, TYPE=SPRING1, ELSET=SPR_VERT
  *ELEMENT, TYPE=SPRING1, ELSET=SPR_LAT
  *ELEMENT, TYPE=SPRING1, ELSET=SPR_AX
  *ELEMENT, TYPE=SPRING1, ELSET=SPR_VERT
  *ELEMENT, TYPE=SPRING1, ELSET=SPR_LAT
  *ELEMENT, TYPE=SPRING1, ELSET=SPR_AX
  *ELEMENT, TYPE=SPRING1, ELSET=SPR_VERT
  *ELEMENT, TYPE=SPRING1, ELSET=SPR_LAT
  *ELEMENT, TYPE=SPRING1, ELSET=SPR_AX
  *ELEMENT, TYPE=SPRING1, ELSET=SPR_VERT
  *ELEMENT, TYPE=SPRING1, ELSET=SPR_LAT
  *ELEMENT, TYPE=SPRING1, ELSET=SPR_AX
  *ELEMENT, TYPE=SPRING1, ELSET=SPR_VERT
  *ELEMENT, TYPE=SPRING1, ELSET=SPR_LAT
  *ELEMENT, TYPE=SPRING1, ELSET=SPR_AX
  *ELEMENT, TYPE=SPRING1, ELSET=SPR_VERT
  *ELEMENT, TYPE=SPRING1, ELSET=SPR_LAT
  *ELEMENT, TYPE=SPRING1, ELSET=SPR_AX
  *ELEMENT, TYPE=SPRING1, ELSET=SPR_VERT
  *ELEMENT, TYPE=SPRING1, ELSET=SPR_LAT
  *ELEMENT, TYPE=SPRING1, ELSET=SPR_AX
  *ELEMENT, TYPE=SPRING1, ELSET=SPR_VERT
  *ELEMENT, TYPE=SPRING1, ELSET=SPR_LAT
  *ELEMENT, TYPE=SPRING1, ELSET=SPR_AX
  *ELEMENT, TYPE=SPRING1, ELSET=SPR_VERT
  *ELEMENT, TYPE=SPRING1, ELSET=SPR_LAT
  *ELEMENT, TYPE=SPRING1, ELSET=SPR_AX
  *ELEMENT, TYPE=SPRING1, ELSET=SPR_VERT
  *ELEMENT, TYPE=SPRING1, ELSET=SPR_LAT
  *ELEMENT, TYPE=SPRING1, ELSET=SPR_AX
  *ELEMENT, TYPE=SPRING1, ELSET=SPR_VERT
  *ELEMENT, TYPE=SPRING1, ELSET=SPR_LAT
  *ELEMENT, TYPE=SPRING1, ELSET=SPR_AX
  *ELEMENT, TYPE=SPRING1, ELSET=SPR_VERT
  *ELEMENT, TYPE=SPRING1, ELSET=SPR_LAT
  *ELEMENT, TYPE=SPRING1, ELSET=SPR_AX
  *ELEMENT, TYPE=SPRING1, ELSET=SPR_VERT
  *ELEMENT, TYPE=SPRING1, ELSET=SPR_LAT
  *ELEMENT, TYPE=SPRING1, ELSET=SPR_AX
  *ELEMENT, TYPE=SPRING1, ELSET=SPR_VERT
  *ELEMENT, TYPE=SPRING1, ELSET=SPR_LAT
  *ELEMENT, TYPE=SPRING1, ELSET=SPR_AX
  *ELEMENT, TYPE=SPRING1, ELSET=SPR_VERT
  *ELEMENT, TYPE=SPRING1, ELSET=SPR_LAT
  *ELEMENT, TYPE=SPRING1, ELSET=SPR_AX
  *ELEMENT, TYPE=SPRING1, ELSET=SPR_VERT
  *ELEMENT, TYPE=SPRING1, ELSET=SPR_LAT
  *ELEMENT, TYPE=SPRING1, ELSET=SPR_AX
  *ELEMENT, TYPE=SPRING1, ELSET=SPR_VERT
  *ELEMENT, TYPE=SPRING1, ELSET=SPR_LAT
  *ELEMENT, TYPE=SPRING1, ELSET=SPR_AX
  *ELEMENT, TYPE=SPRING1, ELSET=SPR_VERT
  *ELEMENT, TYPE=SPRING1, ELSET=SPR_LAT
  *ELEMENT, TYPE=SPRING1, ELSET=SPR_AX
  *ELEMENT, TYPE=SPRING1, ELSET=SPR_VERT
  *ELEMENT, TYPE=SPRING1, ELSET=SPR_LAT
  *ELEMENT, TYPE=SPRING1, ELSET=SPR_AX
  *ELEMENT, TYPE=SPRING1, ELSET=SPR_VERT
  *ELEMENT, TYPE=SPRING1, ELSET=SPR_LAT
  *ELEMENT, TYPE=SPRING1, ELSET=SPR_AX
  *ELEMENT, TYPE=SPRING1, ELSET=SPR_VERT
  *ELEMENT, TYPE=SPRING1, ELSET=SPR_LAT
  *ELEMENT, TYPE=SPRING1, ELSET=SPR_AX
  *ELEMENT, TYPE=SPRING1, ELSET=SPR_VERT
  *ELEMENT, TYPE=SPRING1, ELSET=SPR_LAT
  *ELEMENT, TYPE=SPRING1, ELSET=SPR_AX
  *ELEMENT, TYPE=SPRING1, ELSET=SPR_VERT
  *ELEMENT, TYPE=SPRING1, ELSET=SPR_LAT
  *ELEMENT, TYPE=SPRING1, ELSET=SPR_AX
  *ELEMENT, TYPE=SPRING1, ELSET=SPR_VERT
  *ELEMENT, TYPE=SPRING1, ELSET=SPR_LAT
  *ELEMENT, TYPE=SPRING1, ELSET=SPR_AX
  *ELEMENT, TYPE=SPRING1, ELSET=SPR_VERT
  *ELEMENT, TYPE=SPRING1, ELSET=SPR_LAT
  *ELEMENT, TYPE=SPRING1, ELSET=SPR_AX
  *ELEMENT, TYPE=SPRING1, ELSET=SPR_VERT
  *ELEMENT, TYPE=SPRING1, ELSET=SPR_LAT
  *ELEMENT, TYPE=SPRING1, ELSET=SPR_AX
  *ELEMENT, TYPE=SPRING1, ELSET=SPR_VERT
  *ELEMENT, TYPE=SPRING1, ELSET=SPR_LAT
  *ELEMENT, TYPE=SPRING1, ELSET=SPR_AX
  *ELEMENT, TYPE=SPRING1, ELSET=SPR_VERT
  *ELEMENT, TYPE=SPRING1, ELSET=SPR_LAT
  *ELEMENT, TYPE=SPRING1, ELSET=SPR_AX
  *ELEMENT, TYPE=SPRING1, ELSET=SPR_VERT
  *ELEMENT, TYPE=SPRING1, ELSET=SPR_LAT
  *ELEMENT, TYPE=SPRING1, ELSET=SPR_AX
  *ELEMENT, TYPE=SPRING1, ELSET=SPR_VERT
  *ELEMENT, TYPE=SPRING1, ELSET=SPR_LAT
  *ELEMENT, TYPE=SPRING1, ELSET=SPR_AX
  *ELEMENT, TYPE=SPRING1, ELSET=SPR_VERT
  *ELEMENT, TYPE=SPRING1, ELSET=SPR_LAT
  *ELEMENT, TYPE=SPRING1, ELSET=SPR_AX
  *ELEMENT, TYPE=SPRING1, ELSET=SPR_VERT
  *ELEMENT, TYPE=SPRING1, ELSET=SPR_LAT
  *ELEMENT, TYPE=SPRING1, ELSET=SPR_AX
  *ELEMENT, TYPE=SPRING1, ELSET=SPR_VERT
  *ELEMENT, TYPE=SPRING1, ELSET=SPR_LAT
  *ELEMENT, TYPE=SPRING1, ELSET=SPR_AX
  *ELEMENT, TYPE=SPRING1, ELSET=SPR_VERT
  *ELEMENT, TYPE=SPRING1, ELSET=SPR_LAT
  *ELEMENT, TYPE=SPRING1, ELSET=SPR_AX
  *ELEMENT, TYPE=SPRING1, ELSET=SPR_VERT
  *ELEMENT, TYPE=SPRING1, ELSET=SPR_LAT
  *ELEMENT, TYPE=SPRING1, ELSET=SPR_AX
  *ELEMENT, TYPE=SPRING1, ELSET=SPR_VERT
  *ELEMENT, TYPE=SPRING1, ELSET=SPR_LAT
  *ELEMENT, TYPE=SPRING1, ELSET=SPR_AX
  *ELEMENT, TYPE=SPRING1, ELSET=SPR_VERT
  *ELEMENT, TYPE=SPRING1, ELSET=SPR_LAT
  *ELEMENT, TYPE=SPRING1, ELSET=SPR_AX
  *ELEMENT, TYPE=SPRING1, ELSET=SPR_VERT
  *ELEMENT, TYPE=SPRING1, ELSET=SPR_LAT
  *ELEMENT, TYPE=SPRING1, ELSET=SPR_AX
  *ELEMENT, TYPE=SPRING1, ELSET=SPR_VERT
  *ELEMENT, TYPE=SPRING1, ELSET=SPR_LAT
  *ELEMENT, TYPE=SPRING1, ELSET=SPR_AX
  *ELEMENT, TYPE=SPRING1, ELSET=SPR_VERT
  *ELEMENT, TYPE=SPRING1, ELSET=SPR_LAT
  *ELEMENT, TYPE=SPRING1, ELSET=SPR_AX
  *ELEMENT, TYPE=SPRING1, ELSET=SPR_VERT
  *ELEMENT, TYPE=SPRING1, ELSET=SPR_LAT
  *ELEMENT, TYPE=SPRING1, ELSET=SPR_AX
  *ELEMENT, TYPE=SPRING1, ELSET=SPR_VERT
  *ELEMENT, TYPE=SPRING1, ELSET=SPR_LAT
  *ELEMENT, TYPE=SPRING1, ELSET=SPR_AX
  *ELEMENT, TYPE=SPRING1, ELSET=SPR_VERT
  *ELEMENT, TYPE=SPRING1, ELSET=SPR_LAT
  *ELEMENT, TYPE=SPRING1, ELSET=SPR_AX
  *ELEMENT, TYPE=SPRING1, ELSET=SPR_VERT
  *ELEMENT, TYPE=SPRING1, ELSET=SPR_LAT
  *ELEMENT, TYPE=SPRING1, ELSET=SPR_AX
  *ELEMENT, TYPE=SPRING1, ELSET=SPR_VERT
  *ELEMENT, TYPE=SPRING1, ELSET=SPR_LAT
  *ELEMENT, TYPE=SPRING1, ELSET=SPR_AX
  *ELEMENT, TYPE=SPRING1, ELSET=SPR_VERT
  *ELEMENT, TYPE=SPRING1, ELSET=SPR_LAT
  *ELEMENT, TYPE=SPRING1, ELSET=SPR_AX
  *ELEMENT, TYPE=SPRING1, ELSET=SPR_VERT
  *ELEMENT, TYPE=SPRING1, ELSET=SPR_LAT
  *ELEMENT, TYPE=SPRING1, ELSET=SPR_AX
  *ELEMENT, TYPE=SPRING1, ELSET=SPR_VERT
  *ELEMENT, TYPE=SPRING1, ELSET=SPR_LAT
  *ELEMENT, TYPE=SPRING1, ELSET=SPR_AX
  *ELEMENT, TYPE=SPRING1, ELSET=SPR_VERT
  *ELEMENT, TYPE=SPRING1, ELSET=SPR_LAT
  *ELEMENT, TYPE=SPRING1, ELSET=SPR_AX
  *ELEMENT, TYPE=SPRING1, ELSET=SPR_VERT
  *ELEMENT, TYPE=SPRING1, ELSET=SPR_LAT
  *ELEMENT, TYPE=SPRING1, ELSET=SPR_AX
  *ELEMENT, TYPE=SPRING1, ELSET=SPR_VERT
  *ELEMENT, TYPE=SPRING1, ELSET=SPR_LAT
  *ELEMENT, TYPE=SPRING1, ELSET=SPR_AX
  *ELEMENT, TYPE=SPRING1, ELSET=SPR_VERT
  *ELEMENT, TYPE=SPRING1, ELSET=SPR_LAT
  *ELEMENT, TYPE=SPRING1, ELSET=SPR_AX
  *ELEMENT, TYPE=SPRING1, ELSET=SPR_VERT
  *ELEMENT, TYPE=SPRING1, ELSET=SPR_LAT
  *MATERIAL, NAME=STEEL
  *ELASTIC
  *DENSITY
  *SPRING, ELSET=SPR_AX
  *SPRING, ELSET=SPR_VERT
  *SPRING, ELSET=SPR_LAT
  *INITIAL CONDITIONS, TYPE=STRESS
  *INITIAL CONDITIONS, TYPE=STRESS
  *BOUNDARY, OP=NEW
  *BOUNDARY, OP=NEW
  *BOUNDARY, OP=NEW
  *BEAM SECTION,SECT=PIPE,ELSET=PIPE,MATERIAL=STEEL
  *SPRING, ELSET=SPR_AX
  *SPRING, ELSET=SPR_VERT
  *SPRING, ELSET=SPR_LAT
  *OUTPUT, FIELD, FREQ=10, VARIABLE=PRESELECT
  *OUTPUT, HISTORY, FREQ=0, VARIABLE=PRESELECT
  *OUTPUT, FIELD, VARIABLE=ALL, FREQUENCY=999
  *ELEMENT OUTPUT, ELSET=PIPE
  *INITIAL CONDITIONS, TYPE=STRESS
  *OUTPUT, FIELD, FREQ=10, VARIABLE=PRESELECT
  *OUTPUT, HISTORY, FREQ=0, VARIABLE=PRESELECT
  *OUTPUT, FIELD, VARIABLE=ALL, FREQUENCY=999
  *ELEMENT OUTPUT, ELSET=PIPE
  *INITIAL CONDITIONS, TYPE=STRESS
  *INITIAL CONDITIONS, TYPE=STRESS
  *OUTPUT, FIELD, FREQ=10, VARIABLE=PRESELECT
  *OUTPUT, HISTORY, FREQ=0, VARIABLE=PRESELECT
  *OUTPUT, FIELD, VARIABLE=ALL, FREQUENCY=999
  *ELEMENT OUTPUT, ELSET=PIPE
  *AQUA
  *AQUA

 ***WARNING: FLUID VELOCITIES HAVE NOT BEEN SPECIFIED IN THE *AQUA OPTION. THEY 
             ARE SET TO ZERO.
  *STEP, INC=100, NLGEOM
  *OUTPUT, FIELD, FREQ=10, VARIABLE=PRESELECT
  *OUTPUT, HISTORY, FREQ=0, VARIABLE=PRESELECT
  *STEP, NLGEOM, UNSYMM=YES, INC=2000
  *FREQUENCY, EIGENSOLVER=LANCZOS
  *OUTPUT, FIELD, VARIABLE=ALL, FREQUENCY=999
  *STEP, INC=100, NLGEOM
  *STEP, NLGEOM, UNSYMM=YES, INC=2000
  *STEP, INC=100, NLGEOM
  INITIAL SET UP                                                                  
  *STATIC
  *CONTROLS, ANALYSIS=DISCONTINUOUS
  *BOUNDARY, OP=NEW
  *OUTPUT, FIELD, FREQ=10, VARIABLE=PRESELECT
  *ELEMENT OUTPUT, ELSET=PIPE
  *NODE OUTPUT, NSET=PIPE
  *OUTPUT, HISTORY, FREQ=0, VARIABLE=PRESELECT
  *END STEP
  *STEP, NLGEOM, UNSYMM=YES, INC=2000
  FREQUENCY EXTRACTION                                                            
  *FREQUENCY, EIGENSOLVER=LANCZOS
  *FREQUENCY, EIGENSOLVER=LANCZOS
  *BOUNDARY, OP=NEW
  *NODE PRINT, GLOBAL=YES, NSET=PIPE, FREQ=999

 ***WARNING: THE FREQUENCY PARAMETER IS IGNORED IN A *FREQUENCY, *COMPLEX 
             FREQUENCY, OR *BUCKLE STEP. USE THE MODE AND LAST MODE PARAMETERS 
             TO MODIFY OUTPUT REQUESTS.
  *OUTPUT, FIELD, VARIABLE=ALL, FREQUENCY=999

 ***WARNING: THE FREQUENCY PARAMETER IS IGNORED IN A *FREQUENCY, *COMPLEX 
             FREQUENCY, OR *BUCKLE STEP. USE THE MODE LIST PARAMETER TO MODIFY 
             OUTPUT REQUESTS.
  *MODAL FILE
  *END STEP
  *STEP, INC=100, NLGEOM
  *STATIC
  *BOUNDARY, OP=NEW
  *END STEP
  *STEP, NLGEOM, UNSYMM=YES, INC=2000
  *FREQUENCY, EIGENSOLVER=LANCZOS
  *FREQUENCY, EIGENSOLVER=LANCZOS
  *BOUNDARY, OP=NEW
  *END STEP

 ***WARNING: For 42 beam elements either the average curvature about the local 
             1-direction differs by more than 0.1 degrees per unit length as 
             compared to the default curvature or the approximate integrated 
             curvature for the entire beam differs by more than 5 degrees as 
             compared to the approximate integrated default curvature. This may 
             be due to a user-specified normal or due to the nodal averaging 
             routine used by Abaqus. This difference may cause unexpected 
             behavior of the beam and you may want to verify that the beam 
             normals are correct for your problem. The elements have been 
             identified in element set WarnBeamCurvature1.

 ***WARNING: THE UNSYMMETRIC SOLUTION SCHEME MAY NOT BE TURNED ON IN STEP 2



                            P R O B L E M   S I Z E


          NUMBER OF ELEMENTS IS                                   608
          NUMBER OF NODES IS                                      401
          NUMBER OF NODES DEFINED BY THE USER                     201
          NUMBER OF INTERNAL NODES GENERATED BY THE PROGRAM       200
          TOTAL NUMBER OF VARIABLES IN THE MODEL                 2006
          (DEGREES OF FREEDOM PLUS MAX NO. OF ANY LAGRANGE MULTIPLIER
           VARIABLES. INCLUDE *PRINT,SOLVE=YES TO GET THE ACTUAL NUMBER.)



                              END OF USER INPUT PROCESSING



     JOB TIME SUMMARY
       USER TIME (SEC)      =  0.10000    
       SYSTEM TIME (SEC)    =  0.10000    
       TOTAL CPU TIME (SEC) =  0.20000    
       WALLCLOCK TIME (SEC) =          0
1

   Abaqus 6.14-4                                  Date 08-Aug-2023   Time 15:12:18
   For use by T_EN NET SAS under license from Dassault Systemes or its subsidiary.

                                                                                               STEP    1  INCREMENT    1
     INITIAL SET UP                                                                       TIME COMPLETED IN THIS STEP   0.00    


                        S T E P       1     S T A T I C   A N A L Y S I S


          INITIAL SET UP                                                                  

     AUTOMATIC TIME CONTROL WITH -
          A SUGGESTED INITIAL TIME INCREMENT OF                1.000E-04
          AND A TOTAL TIME PERIOD OF                            1.00    
          THE MINIMUM TIME INCREMENT ALLOWED IS                1.000E-09
          THE MAXIMUM TIME INCREMENT ALLOWED IS                 1.00    

     LINEAR EQUATION SOLVER TYPE         DIRECT SPARSE

          LARGE DISPLACEMENT THEORY WILL BE USED



                    TOTAL MASS OF MODEL

                       23630.57    


                    LOCATION OF THE CENTER OF MASS OF THE MODEL

                       100.0000         -9.0083921E-02       0.000000    


                    MOMENTS OF INERTIA ABOUT THE ORIGIN
                           I(XX)               I(YY)               I(ZZ)

                       1597.379          3.1507205E+08      3.1507303E+08


                    PRODUCTS OF INERTIA ABOUT THE ORIGIN
                           I(XY)               I(XZ)               I(YZ)

                       212877.2         -3.3590738E-32     -2.1682011E-13


                    MOMENTS OF INERTIA ABOUT THE CENTER OF MASS
                           I(XX)               I(YY)               I(ZZ)

                       1405.614          7.8766326E+07      7.8767112E+07


                    PRODUCTS OF INERTIA ABOUT THE CENTER OF MASS
                           I(XY)               I(XZ)               I(YZ)

                       3.723697         -3.3590738E-32     -2.1682011E-13
  
                   M E M O R Y   E S T I M A T E
  
 PROCESS      FLOATING PT       MINIMUM MEMORY        MEMORY TO
              OPERATIONS           REQUIRED          MINIMIZE I/O
             PER ITERATION           (MB)               (MB)
  
     1         7.25E+005               17                 31
  
 NOTE:
      (1) SINCE ABAQUS DOES NOT PRE-ALLOCATE MEMORY AND ONLY ALLOCATES MEMORY AS NEEDED DURING THE ANALYSIS,
          THE MEMORY REQUIREMENT PRINTED HERE CAN ONLY BE VIEWED AS A GENERAL GUIDELINE BASED ON THE BEST
          KNOWLEDGE AVAILABLE AT THE BEGINNING OF A STEP BEFORE THE SOLUTION PROCESS HAS BEGUN.
      (2) THE ESTIMATE IS NORMALLY UPDATED AT THE BEGINNING OF EVERY STEP. IT IS THE MAXIMUM VALUE OF THE
          ESTIMATE FROM THE CURRENT STEP TO THE LAST STEP OF THE ANALYSIS, WITH UNSYMMETRIC SOLUTION TAKEN
          INTO ACCOUNT IF APPLICABLE. 
      (3) SINCE THE ESTIMATE IS BASED ON THE ACTIVE DEGREES OF FREEDOM IN THE FIRST ITERATION OF THE 
          CURRENT STEP, THE MEMORY ESTIMATE MIGHT BE SIGNIFICANTLY DIFFERENT THAN ACTUAL USAGE FOR 
          PROBLEMS WITH SUBSTANTIAL CHANGES IN ACTIVE DEGREES OF FREEDOM BETWEEN STEPS (OR EVEN WITHIN
          THE SAME STEP). EXAMPLES ARE: PROBLEMS WITH SIGNIFICANT CONTACT CHANGES, PROBLEMS WITH MODEL
          CHANGE, PROBLEMS WITH BOTH STATIC STEP AND STEADY STATE DYNAMIC PROCEDURES WHERE ACOUSTIC 
          ELEMENTS WILL ONLY BE ACTIVATED IN THE STEADY STATE DYNAMIC STEPS.
      (4) FOR MULTI-PROCESS EXECUTION, THE ESTIMATED VALUE OF FLOATING POINT OPERATIONS FOR EACH PROCESS
          IS BASED ON AN INITIAL SCHEDULING OF OPERATIONS AND MIGHT NOT REFLECT THE ACTUAL FLOATING 
          POINT OPERATIONS COMPLETED ON EACH PROCESS. OPERATIONS ARE DYNAMICALLY BALANCED DURING EXECUTION, 
          SO THE ACTUAL BALANCE OF OPERATIONS BETWEEN PROCESSES IS EXPECTED TO BE BETTER THAN THE ESTIMATE
          PRINTED HERE.
      (5) THE UPPER LIMIT OF MEMORY THAT CAN BE ALLOCATED BY ABAQUS WILL IN GENERAL DEPEND ON THE VALUE OF
          THE "MEMORY" PARAMETER AND THE AMOUNT OF PHYSICAL MEMORY AVAILABLE ON THE MACHINE. PLEASE SEE
          THE "ABAQUS ANALYSIS USER'S MANUAL" FOR MORE DETAILS. THE ACTUAL USAGE OF MEMORY AND OF DISK
          SPACE FOR SCRATCH DATA WILL DEPEND ON THIS UPPER LIMIT AS WELL AS THE MEMORY REQUIRED TO MINIMIZE
          I/O. IF THE MEMORY UPPER LIMIT IS GREATER THAN THE MEMORY REQUIRED TO MINIMIZE I/O, THEN THE ACTUAL
          MEMORY USAGE WILL BE CLOSE TO THE ESTIMATED "MEMORY TO MINIMIZE I/O" VALUE, AND THE SCRATCH DISK
          USAGE WILL BE CLOSE-TO-ZERO; OTHERWISE, THE ACTUAL MEMORY USED WILL BE CLOSE TO THE PREVIOUSLY
          MENTIONED MEMORY LIMIT, AND THE SCRATCH DISK USAGE WILL BE ROUGHLY PROPORTIONAL TO THE DIFFERENCE
          BETWEEN THE ESTIMATED "MEMORY TO MINIMIZE I/O" AND THE MEMORY UPPER LIMIT. HOWEVER ACCURATE
          ESTIMATE OF THE SCRATCH DISK SPACE IS NOT POSSIBLE.
      (6) USING "*RESTART, WRITE" CAN GENERATE A LARGE AMOUNT OF DATA WRITTEN IN THE WORK DIRECTORY.
1

   Abaqus 6.14-4                                  Date 08-Aug-2023   Time 15:12:20
   For use by T_EN NET SAS under license from Dassault Systemes or its subsidiary.

                                                                                               STEP    2  INCREMENT    1
     FREQUENCY EXTRACTION                                                                 TIME COMPLETED IN THIS STEP   0.00    


                        S T E P       2     C A L C U L A T I O N   O F   E I G E N V A L U E S

                                            F O R   N A T U R A L   F R E Q U E N C I E S



          FREQUENCY EXTRACTION                                                            

     THE LANCZOS EIGENSOLVER IS USED FOR THIS ANALYSIS
     Abaqus WILL COMPUTE UNCOUPLED
      STRUCTURAL AND ACOUSTIC MODES
     NUMBER OF EIGENVALUES                     20
     HIGHEST FREQUENCY OF INTEREST                  1.00000E+18
     MAXIMUM NUMBER OF STEPS WITHIN RUN               35
     BLOCK SIZE FOR LANCZOS PROCEDURE                  7
     THE EIGENVECTORS ARE SCALED SO THAT 
      THE LARGEST DISPLACEMENT ENTRY IN EACH VECTOR
      IS UNITY
                              INITIAL STRESS AND DISPLACEMENT EFFECTS ARE
                              INCLUDED IN THE STIFFNESS MATRIX

     THIS IS A LINEAR PERTURBATION STEP.
     ALL LOADS ARE DEFINED AS CHANGE IN LOAD TO THE REFERENCE STATE

          LARGE DISPLACEMENT THEORY WILL BE USED
  
                   M E M O R Y   E S T I M A T E
  
 PROCESS      FLOATING PT       MINIMUM MEMORY        MEMORY TO
              OPERATIONS           REQUIRED          MINIMIZE I/O
             PER ITERATION           (MB)               (MB)
  
     1         7.24E+005               16                 30
  
 NOTE:
      (1) SINCE ABAQUS DOES NOT PRE-ALLOCATE MEMORY AND ONLY ALLOCATES MEMORY AS NEEDED DURING THE ANALYSIS,
          THE MEMORY REQUIREMENT PRINTED HERE CAN ONLY BE VIEWED AS A GENERAL GUIDELINE BASED ON THE BEST
          KNOWLEDGE AVAILABLE AT THE BEGINNING OF A STEP BEFORE THE SOLUTION PROCESS HAS BEGUN.
      (2) THE ESTIMATE IS NORMALLY UPDATED AT THE BEGINNING OF EVERY STEP. IT IS THE MAXIMUM VALUE OF THE
          ESTIMATE FROM THE CURRENT STEP TO THE LAST STEP OF THE ANALYSIS, WITH UNSYMMETRIC SOLUTION TAKEN
          INTO ACCOUNT IF APPLICABLE. 
      (3) SINCE THE ESTIMATE IS BASED ON THE ACTIVE DEGREES OF FREEDOM IN THE FIRST ITERATION OF THE 
          CURRENT STEP, THE MEMORY ESTIMATE MIGHT BE SIGNIFICANTLY DIFFERENT THAN ACTUAL USAGE FOR 
          PROBLEMS WITH SUBSTANTIAL CHANGES IN ACTIVE DEGREES OF FREEDOM BETWEEN STEPS (OR EVEN WITHIN
          THE SAME STEP). EXAMPLES ARE: PROBLEMS WITH SIGNIFICANT CONTACT CHANGES, PROBLEMS WITH MODEL
          CHANGE, PROBLEMS WITH BOTH STATIC STEP AND STEADY STATE DYNAMIC PROCEDURES WHERE ACOUSTIC 
          ELEMENTS WILL ONLY BE ACTIVATED IN THE STEADY STATE DYNAMIC STEPS.
      (4) FOR MULTI-PROCESS EXECUTION, THE ESTIMATED VALUE OF FLOATING POINT OPERATIONS FOR EACH PROCESS
          IS BASED ON AN INITIAL SCHEDULING OF OPERATIONS AND MIGHT NOT REFLECT THE ACTUAL FLOATING 
          POINT OPERATIONS COMPLETED ON EACH PROCESS. OPERATIONS ARE DYNAMICALLY BALANCED DURING EXECUTION, 
          SO THE ACTUAL BALANCE OF OPERATIONS BETWEEN PROCESSES IS EXPECTED TO BE BETTER THAN THE ESTIMATE
          PRINTED HERE.
      (5) THE UPPER LIMIT OF MEMORY THAT CAN BE ALLOCATED BY ABAQUS WILL IN GENERAL DEPEND ON THE VALUE OF
          THE "MEMORY" PARAMETER AND THE AMOUNT OF PHYSICAL MEMORY AVAILABLE ON THE MACHINE. PLEASE SEE
          THE "ABAQUS ANALYSIS USER'S MANUAL" FOR MORE DETAILS. THE ACTUAL USAGE OF MEMORY AND OF DISK
          SPACE FOR SCRATCH DATA WILL DEPEND ON THIS UPPER LIMIT AS WELL AS THE MEMORY REQUIRED TO MINIMIZE
          I/O. IF THE MEMORY UPPER LIMIT IS GREATER THAN THE MEMORY REQUIRED TO MINIMIZE I/O, THEN THE ACTUAL
          MEMORY USAGE WILL BE CLOSE TO THE ESTIMATED "MEMORY TO MINIMIZE I/O" VALUE, AND THE SCRATCH DISK
          USAGE WILL BE CLOSE-TO-ZERO; OTHERWISE, THE ACTUAL MEMORY USED WILL BE CLOSE TO THE PREVIOUSLY
          MENTIONED MEMORY LIMIT, AND THE SCRATCH DISK USAGE WILL BE ROUGHLY PROPORTIONAL TO THE DIFFERENCE
          BETWEEN THE ESTIMATED "MEMORY TO MINIMIZE I/O" AND THE MEMORY UPPER LIMIT. HOWEVER ACCURATE
          ESTIMATE OF THE SCRATCH DISK SPACE IS NOT POSSIBLE.
      (6) USING "*RESTART, WRITE" CAN GENERATE A LARGE AMOUNT OF DATA WRITTEN IN THE WORK DIRECTORY.


                              E I G E N V A L U E    O U T P U T     

 MODE NO      EIGENVALUE              FREQUENCY         GENERALIZED MASS   COMPOSITE MODAL DAMPING            
                             (RAD/TIME)   (CYCLES/TIME)


       1       47.862         6.9182         1.1011         2466.8         0.0000    
       2       68.250         8.2614         1.3148         2553.3         0.0000    
       3       273.62         16.541         2.6327         2728.3         0.0000    
       4       288.72         16.992         2.7043         2680.3         0.0000    
       5       900.42         30.007         4.7758         3088.6         0.0000    
       6       967.42         31.103         4.9502         2778.8         0.0000    
       7       1167.6         34.171         5.4384         1501.0         0.0000    
       8       1219.0         34.915         5.5569         1525.2         0.0000    
       9       1346.5         36.695         5.8402         1177.0         0.0000    
      10       1384.0         37.202         5.9209         1150.6         0.0000    
      11       2333.5         48.306         7.6882         2728.5         0.0000    
      12       2479.8         49.797         7.9255         2661.1         0.0000    
      13       4735.2         68.813         10.952         2655.4         0.0000    
      14       5088.3         71.332         11.353         2637.1         0.0000    
      15       6530.4         80.811         12.861         15392.         0.0000    
      16       6567.2         81.038         12.898         1429.4         0.0000    
      17       6883.7         82.968         13.205         1400.6         0.0000    
      18       7922.2         89.007         14.166         1330.9         0.0000    
      19       8350.3         91.380         14.544         1256.2         0.0000    
      20       8552.0         92.477         14.718         2803.4         0.0000    


          P A R T I C I P A T I O N   F A C T O R S

 MODE NO    X-COMPONENT    Y-COMPONENT    Z-COMPONENT    X-ROTATION     Y-ROTATION     Z-ROTATION 

       1     -3.11400E-17    3.64292E-16     1.2960       -0.65647        -129.68        3.49473E-14
       2      2.99518E-02     1.2857        2.58355E-16   -6.06115E-17   -2.22605E-14     128.66    
       3      4.75632E-02   -3.30113E-03    8.42017E-17   -4.14675E-17   -1.03393E-13    -11.825    
       4      5.10517E-16    4.07448E-16   -4.98119E-03    6.24210E-05     12.602       -5.24692E-14
       5     -1.15856E-02    0.11351       -1.78511E-15    4.15041E-16    2.91007E-13     10.813    
       6     -2.90014E-15   -7.43187E-15    0.31013       -5.09516E-02    -30.794       -7.97818E-13
       7      1.23366E-02    0.47647        1.60361E-15   -1.58968E-16    9.63363E-14     95.415    
       8     -2.33497E-02     1.6299       -8.82324E-15   -1.24523E-16    5.19521E-13     150.33    
       9      2.34933E-15   -1.33044E-15    0.85377       -4.98105E-03    -134.19        1.81508E-13
      10     -2.48480E-15    9.09187E-15     1.6454       -8.40526E-03    -140.10        5.96118E-13
      11     -1.96617E-02    8.51505E-03   -6.87982E-16   -5.29508E-17   -1.55310E-13    -13.557    
      12     -1.11518E-15   -1.26217E-15    5.85292E-03   -2.34150E-04     12.660       -3.34541E-13
      13     -7.18197E-02    0.48793       -4.08699E-14    1.35041E-15    4.26393E-12     48.265    
      14     -1.66292E-13   -4.35912E-14    0.44744       -2.79170E-02    -44.277       -4.79237E-12
      15       1.0808        2.30737E-03   -4.94789E-12   -4.34682E-14   -7.46021E-11   -0.19732    
      16     -0.78565        0.12433        1.38473E-11   -3.75406E-14    2.77909E-09     8.4254    
      17     -0.96608       -5.90672E-02   -1.06554E-10    1.20863E-12    1.15200E-08    -11.964    
      18      1.11802E-10    7.86192E-11    9.92206E-02   -6.32064E-03    -4.0236        3.40371E-08
      19      9.64908E-10   -9.18676E-11   -6.54858E-02    7.44000E-03     13.530        8.36287E-08
      20     -9.91962E-02    2.12566E-03    4.67307E-09   -4.08566E-11    1.88001E-07     11.816    


                    E F F E C T I V E   M A S S

 MODE NO    X-COMPONENT    Y-COMPONENT    Z-COMPONENT    X-ROTATION     Y-ROTATION     Z-ROTATION 

       1      2.39206E-30    3.27368E-28     4143.1         1063.1        4.14834E+07    3.01276E-24
       2       2.2906         4220.4        1.70424E-28    9.38009E-30    1.26523E-24    4.22621E+07
       3       6.1721        2.97313E-02    1.93433E-29    4.69143E-30    2.91658E-23    3.81511E+05
       4      6.98571E-28    4.44974E-28    6.65053E-02    1.04436E-05    4.25695E+05    7.37901E-24
       5      0.41457         39.795        9.84210E-27    5.32035E-28    2.61556E-22    3.61115E+05
       6      2.33716E-26    1.53478E-25     267.27         7.2139        2.63507E+06    1.76872E-21
       7      0.22844         340.77        3.85999E-27    3.79320E-29    1.39306E-23    1.36654E+07
       8      0.83155         4052.0        1.18736E-25    2.36495E-29    4.11654E-22    3.44692E+07
       9      6.49614E-27    2.08334E-27     857.91        2.92017E-02    2.11929E+07    3.87756E-23
      10      7.10399E-27    9.51104E-26     3115.2        8.12874E-02    2.25845E+07    4.08871E-22
      11       1.0548        0.19783        1.29146E-27    7.65017E-30    6.58148E-23    5.01500E+05
      12      3.30938E-27    4.23928E-27    9.11592E-02    1.45896E-04    4.26501E+05    2.97821E-22
      13       13.697         632.18        4.43551E-24    4.84248E-27    4.82789E-20    6.18587E+06
      14      7.29229E-23    5.01094E-24     527.95         2.0552        5.16977E+06    6.05652E-20
      15       17979.        8.19484E-02    3.76830E-19    2.90836E-23    8.56657E-17     599.28    
      16       882.28         22.097        2.74081E-19    2.01442E-24    1.10396E-14    1.01468E+05
      17       1307.2         4.8867        1.59024E-17    2.04601E-21    1.85877E-13    2.00488E+05
      18      1.66364E-17    8.22654E-18     13.103        5.31719E-02     21547.        1.54193E-12
      19      1.16954E-15    1.06015E-17     5.3869        6.95325E-02    2.29949E+05    8.78522E-12
      20       27.585        1.26670E-02    6.12195E-14    4.67961E-18    9.90844E-11    3.91376E+05

 TOTAL         20221.         9312.5         8930.1         1072.6        9.41693E+07    9.85206E+07




                    E I G E N V A L U E    N U M B E R     1
  
  
  
  
                                       N O D E   O U T P U T
  
  
  
  
   THE FOLLOWING TABLE IS PRINTED FOR NODES BELONGING TO NODE SET PIPE
  
       NODE FOOT-  U1             U2             U3             UR1            UR2            UR3          
            NOTE
  
         2     -5.8542437E-18 -1.2397851E-17  2.4968830E-14  0.0000000E+00 -5.0325817E-14 -9.1692917E-17 
         3      1.8486628E-17 -1.5216303E-16  1.0078785E-13  0.0000000E+00 -1.0142017E-13 -2.7716677E-17 
         4      2.9386981E-17 -7.0481851E-17  2.2713349E-13  0.0000000E+00 -1.4844972E-13  2.6060835E-17 
         5      1.6002249E-17 -1.2441410E-16  3.9473473E-13  0.0000000E+00 -1.7781007E-13 -4.5871027E-17 
         6      2.0073796E-17 -1.4805176E-16  5.7544630E-13  0.0000000E+00 -1.6337427E-13 -3.7720787E-17 
         7     -7.8136783E-18 -2.0332937E-16  7.0725997E-13  0.0000000E+00 -6.3714031E-14 -4.3419604E-17 
         8     -1.5668070E-17 -2.2942015E-16  6.7912882E-13  0.0000000E+00  1.7761796E-13  2.2106910E-17 
         9     -1.2586035E-17 -1.5458566E-16  3.1809137E-13  0.0000000E+00  6.2261036E-13  1.0678505E-16 
        10      7.0620120E-19 -3.6635354E-17 -6.0813044E-13  0.0000000E+00  1.3193984E-12  9.0688481E-17 
        11     -3.7532020E-17  2.4017259E-17 -2.3599310E-12  0.0000000E+00  2.2634725E-12  3.9951930E-17 
        12      3.5071953E-18  5.6896539E-17 -5.1561065E-12  0.0000000E+00  3.3421353E-12  7.2731631E-17 
        13     -1.0432244E-17  1.5772422E-16 -9.0152200E-12  0.0000000E+00  4.2472384E-12  4.6500460E-17 
        14      2.8887520E-17  1.4800953E-16 -1.3522517E-11  0.0000000E+00  4.3851306E-12 -4.4476773E-17 
        15      1.2992762E-17  7.6966372E-17 -1.7497131E-11  0.0000000E+00  2.7957209E-12 -6.5132209E-17 
        16      1.3732763E-17  2.2245500E-17 -1.8601182E-11  0.0000000E+00 -1.8654017E-12 -6.0697338E-18 
        17      1.8257572E-17  4.6714248E-17 -1.2986319E-11  0.0000000E+00 -1.1199110E-11 -3.2045650E-17 
        18      4.4485821E-17 -4.2459104E-17  4.8220960E-12  0.0000000E+00 -2.6673384E-11 -7.2969607E-17 
        19      5.2271307E-17 -8.7705239E-17  4.1476635E-11  0.0000000E+00 -4.8834235E-11 -6.5332216E-17 
        20      5.7299305E-17 -1.6166462E-16  1.0332392E-10  0.0000000E+00 -7.5987451E-11  2.0268587E-17 
        21      5.7495175E-17 -6.6382030E-17  1.9331076E-10  0.0000000E+00 -1.0229763E-10  1.8753648E-17 
        22      5.2745014E-17 -1.3362403E-16  3.0571962E-10  0.0000000E+00 -1.1543191E-10 -2.0020660E-17 
        23      2.9813219E-17 -8.6005736E-17  4.1844563E-10  0.0000000E+00 -9.4247905E-11  1.1426674E-16 
        24      2.9082232E-17  6.7868009E-17  4.8327987E-10  0.0000000E+00 -7.5556805E-12  5.9641771E-17 
        25     -2.0231980E-17  2.0059140E-17  4.1600771E-10  0.0000000E+00  1.8426414E-10 -5.9060324E-17 
        26      1.2898625E-18 -1.9208079E-17  9.0381750E-11  0.0000000E+00  5.2207041E-10  1.6547254E-17 
        27     -1.4640850E-17  4.6098938E-17 -6.5683179E-10  0.0000000E+00  1.0317961E-09  5.0646605E-17 
        28      4.6310468E-18  6.8884554E-17 -1.9989568E-09  0.0000000E+00  1.6957576E-09 -1.1501687E-18 
        29      9.4932820E-18  4.8251904E-17 -4.0565754E-09  0.0000000E+00  2.4090179E-09 -1.2256710E-17 
        30      4.6585425E-17  5.6417790E-17 -6.7835603E-09  0.0000000E+00  2.9220138E-09  3.2861881E-17 
        31      5.0649470E-17  1.0919871E-16 -9.7909849E-09  0.0000000E+00  2.7783628E-09  9.0000415E-18 
        32      5.3636374E-17  6.3008125E-17 -1.2112198E-08  0.0000000E+00  1.2683805E-09 -3.3890125E-17 
        33      5.6821134E-17  4.1687435E-17 -1.1940248E-08  0.0000000E+00 -2.5628744E-09 -2.1201029E-17 
        34      6.2716337E-17  2.0553040E-17 -6.4192791E-09  0.0000000E+00 -9.7917279E-09 -1.0972612E-17 
        35      5.4184504E-17  2.0751039E-17  8.3566441E-09  0.0000000E+00 -2.1294406E-08  4.7537328E-17 
        36      1.0638714E-16  1.0573384E-16  3.6893621E-08  0.0000000E+00 -3.7134767E-08  3.7878994E-17 
        37      6.7210535E-17  8.9531498E-17  8.3061473E-08  0.0000000E+00 -5.5582886E-08 -1.6781967E-17 
        38      6.5217901E-17  6.9174263E-17  1.4767869E-07  0.0000000E+00 -7.1750670E-08 -4.4840761E-17 
        39      3.6452077E-17  3.1934218E-18  2.2457104E-07  0.0000000E+00 -7.5987173E-08 -3.8543174E-17 
        40      5.1378083E-17 -8.1650374E-18  2.9501636E-07  0.0000000E+00 -5.2448335E-08 -2.6586500E-17 
        41      2.9201389E-18 -4.5837354E-17  3.2107629E-07  0.0000000E+00  2.1358396E-08 -6.9061828E-18 
        42      1.3459484E-17 -1.6630823E-17  2.3935802E-07  0.0000000E+00  1.7269053E-07  4.9143353E-17 
        43     -2.5678583E-17  4.8361906E-17 -4.1563214E-08  0.0000000E+00  4.2740878E-07  8.9740590E-17 
        44      3.2834949E-18  1.5648503E-16 -6.3466947E-07  0.0000000E+00  7.9720440E-07  7.1304862E-17 
        45      4.0965716E-18  1.7462040E-16 -1.6511465E-06  0.0000000E+00  1.2579051E-06 -3.5179724E-17 
        46      3.4308440E-17  1.0055369E-16 -3.1503319E-06  0.0000000E+00  1.7177264E-06 -1.2448737E-17 
        47     -2.5534179E-17  1.4979931E-16 -5.0531852E-06  0.0000000E+00  1.9773902E-06  4.5725445E-17 
        48     -4.4496716E-18  1.7071596E-16 -7.0137429E-06  0.0000000E+00  1.6897213E-06 -3.8454057E-17 
        49      2.7841924E-17  7.1558538E-17 -8.2545931E-06  0.0000000E+00  3.3555638E-07 -1.4469282E-16 
        50      1.8515043E-17 -1.0416810E-16 -7.3950935E-06  0.0000000E+00 -2.7544047E-06 -1.6795571E-16 
        51      1.6030607E-17 -2.3673433E-16 -2.3378864E-06  0.0000000E+00 -8.2878542E-06 -6.4917533E-17 
        52      4.4647489E-17 -2.3046769E-16  9.6696792E-06  0.0000000E+00 -1.6751040E-05  4.6607210E-17 
        53     -6.0735154E-18 -1.5716841E-16  3.1618990E-05  0.0000000E+00 -2.7938713E-05  8.5841597E-17 
        54      2.8665311E-17 -6.2241514E-17  6.5731262E-05  0.0000000E+00 -4.0229677E-05  1.3376477E-16 
        55     -1.4820480E-17  9.3415508E-17  1.1159467E-04  0.0000000E+00 -4.9623403E-05  7.4478132E-17 
        56     -6.0893577E-17  8.1268504E-17  1.6325064E-04  0.0000000E+00 -4.8669284E-05 -5.8953087E-17 
        57     -7.0220808E-17 -1.4181187E-17  2.0524442E-04  0.0000000E+00 -2.5617778E-05 -1.1933113E-16 
        58     -7.7894653E-21 -1.2362003E-16  2.0812074E-04  0.0000000E+00  3.5565333E-05  1.9870559E-17 
        59      1.5811740E-17  1.8153002E-17  1.2467148E-04  0.0000000E+00  1.5331178E-04  9.9861793E-17 
        60     -1.5550865E-17  3.4474318E-17 -1.1391760E-04  0.0000000E+00  3.4563279E-04 -8.4325017E-18 
        61     -6.5067997E-18  4.4948916E-18 -5.8058768E-04  0.0000000E+00  6.1161391E-04 -7.6477041E-17 
        62     -1.8846626E-17 -1.1816751E-16 -1.3453100E-03  0.0000000E+00  9.2650691E-04 -9.0625687E-17 
        63      1.8860411E-16 -1.5540659E-16 -2.4287098E-03  0.0000000E+00  1.2120999E-03 -1.7528967E-17 
        64      1.0426495E-16 -1.3773832E-16 -3.7556712E-03  0.0000000E+00  1.4147979E-03  7.9737372E-17 
        65     -3.0307746E-17 -3.3150383E-17 -5.2449868E-03  0.0000000E+00  1.5377165E-03  4.0549264E-17 
        66      7.1907874E-17 -6.6717245E-17 -6.8181879E-03  0.0000000E+00  1.5832675E-03 -9.2621180E-17 
        67      2.6619237E-18 -1.8742725E-16 -8.3988807E-03  0.0000000E+00  1.5530992E-03  1.7315532E-17 
        68     -2.8515507E-17 -6.8278677E-17 -9.9118898E-03  0.0000000E+00  1.4480779E-03  3.4978991E-17 
        69      2.8331232E-17 -1.2220978E-16 -1.1282586E-02  0.0000000E+00  1.2684758E-03 -7.8567446E-17 
        70      7.0119257E-18 -1.6713598E-16 -1.2436367E-02  0.0000000E+00  1.0141496E-03  4.7316080E-17 
        71     -3.1358665E-17 -7.2758210E-17 -1.3298292E-02  0.0000000E+00  6.8438961E-04  1.9109297E-17 
        72     -2.0262923E-17 -1.2386546E-16 -1.3792253E-02  0.0000000E+00  2.7739946E-04 -3.2805379E-18 
        73     -2.4847244E-17 -6.2786358E-17 -1.3839744E-02  0.0000000E+00 -2.0953478E-04 -1.3214467E-17 
        74     -5.6071202E-17 -1.4925358E-16 -1.3359278E-02  0.0000000E+00 -7.7976191E-04  1.3758978E-17 
        75     -1.4864550E-17 -1.6275529E-17 -1.2265540E-02  0.0000000E+00 -1.4379177E-03  1.4745807E-16 
        76     -1.0726413E-17  1.0578158E-16 -1.0380090E-02  0.0000000E+00 -2.7152011E-03  5.2943583E-17 
        77     -3.1544036E-17  1.0177678E-16 -6.5676046E-03  0.0000000E+00 -5.5951108E-03 -2.0141483E-18 
        78     -2.8296901E-17  1.1191740E-16  1.2046771E-03  0.0000000E+00 -1.0838355E-02 -3.5643976E-17 
        79      1.4994357E-17  3.4000458E-17  1.5553211E-02  0.0000000E+00 -1.8741387E-02 -3.8605509E-17 
        80     -1.4072741E-17  3.8138936E-17  3.9029169E-02  0.0000000E+00 -2.8689991E-02  6.1182061E-17 
        81     -2.9751763E-18  1.3502285E-16  7.2907178E-02  0.0000000E+00 -3.8479781E-02  7.6269776E-17 
        82     -2.4448151E-16  2.1842380E-16  1.1570614E-01  0.0000000E+00 -4.6573645E-02  5.5534356E-17 
        83      1.3438586E-17  2.6622672E-16  1.6525913E-01  0.0000000E+00 -5.3032199E-02  3.4720126E-17 
        84     -3.5910261E-17  2.5962673E-16  2.2105818E-01  0.0000000E+00 -5.8093227E-02 -2.6299155E-17 
        85     -2.4287123E-17  2.7830799E-16  2.8121720E-01  0.0000000E+00 -6.1784623E-02 -1.6572906E-17 
        86      4.5961678E-17  2.8022859E-16  3.4441424E-01  0.0000000E+00 -6.4197785E-02 -2.6660101E-17 
        87     -1.3889683E-16  2.1122542E-16  4.0941324E-01  0.0000000E+00 -6.5414711E-02  1.0363875E-16 
        88     -1.7577941E-16  4.8027747E-16  4.7505686E-01  0.0000000E+00 -6.5511812E-02  1.5013447E-16 
        89      3.1852544E-17  5.4489958E-16  5.4026220E-01  0.0000000E+00 -6.4561885E-02  8.9622220E-17 
        90     -5.9500471E-17  5.8134853E-16  6.0401824E-01  0.0000000E+00 -6.2638404E-02  7.3001490E-17 
        91      7.8665812E-17  5.9324085E-16  6.6539009E-01  0.0000000E+00 -5.9821952E-02  8.3036040E-17 
        92      8.9255669E-17  7.2656491E-16  7.2352668E-01  0.0000000E+00 -5.6193079E-02  7.7053866E-17 
        93      4.9857205E-17  7.3040691E-16  7.7765431E-01  0.0000000E+00 -5.1832747E-02 -1.6232384E-17 
        94      8.5140102E-17  7.5367189E-16  8.2708411E-01  0.0000000E+00 -4.6823984E-02  8.1808591E-18 
        95      5.5243838E-17  7.7988876E-16  8.7120670E-01  0.0000000E+00 -4.1241620E-02  3.4678592E-18 
        96      1.1537785E-16  7.2820580E-16  9.0948494E-01  0.0000000E+00 -3.5164493E-02 -2.5795524E-17 
        97     -4.2011927E-17  7.8553029E-16  9.4146649E-01  0.0000000E+00 -2.8671839E-02  5.2637477E-17 
        98      2.4756648E-17  8.8932192E-16  9.6677119E-01  0.0000000E+00 -2.1834339E-02  1.3337091E-17 
        99      6.4067230E-17  8.1636524E-16  9.8509141E-01  0.0000000E+00 -1.4733979E-02 -1.8042666E-16 
       100      9.7404772E-17  5.7713480E-16  9.9621042E-01  0.0000000E+00 -7.4610097E-03 -1.7335358E-16 
       101     -3.9187235E-18  4.6960946E-16  1.0000000E+00  0.0000000E+00 -1.0731649E-04 -5.7843771E-17 
       102      1.1238114E-17  4.4282061E-16  9.9642678E-01  0.0000000E+00  7.2359918E-03 -1.7470367E-16 
       103     -4.8320890E-17  7.1850834E-17  9.8554270E-01  0.0000000E+00  1.4491074E-02 -1.5787516E-16 
       104      2.6096114E-17  1.4142918E-16  9.6747240E-01  0.0000000E+00  2.1579340E-02 -4.2038097E-17 
       105     -9.7045825E-18  9.5951323E-17  9.4242489E-01  0.0000000E+00  2.8422058E-02 -1.6144093E-16 
       106     -1.1820764E-16 -1.5098113E-16  9.1068219E-01  0.0000000E+00  3.4941011E-02 -1.3455715E-16 
       107     -1.4329058E-16 -2.4895720E-16  8.7261142E-01  0.0000000E+00  4.1048290E-02 -1.0076462E-16 
       108     -1.3821011E-16 -2.8728124E-16  8.2866744E-01  0.0000000E+00  4.6664318E-02 -3.4721092E-17 
       109     -2.3381094E-16 -2.2635469E-16  7.7937747E-01  0.0000000E+00  5.1712075E-02  9.9317067E-17 
       110     -2.2633954E-17 -1.7322265E-16  7.2535253E-01  0.0000000E+00  5.6104310E-02  4.6567940E-17 
       111     -1.9376311E-17 -1.3659931E-16  6.6729205E-01  0.0000000E+00  5.9757511E-02 -4.1783747E-17 
       112     -2.1257074E-17 -2.0578461E-16  6.0597273E-01  0.0000000E+00  6.2599778E-02 -3.1866528E-17 
       113     -1.2108126E-16 -2.4072577E-16  5.4223990E-01  0.0000000E+00  6.4558146E-02 -9.5530728E-17 
       114      6.7499587E-18 -3.9939570E-16  4.7701746E-01  0.0000000E+00  6.5551128E-02  3.4625479E-18 
       115      7.2984637E-17 -3.0741834E-16  4.1131176E-01  0.0000000E+00  6.5500310E-02  1.4675872E-16 
       116     -1.2928873E-16 -1.1143190E-16  3.4620331E-01  0.0000000E+00  6.4331662E-02  7.2329588E-17 
       117     -2.4000151E-16 -1.1225815E-16  2.8284839E-01  0.0000000E+00  6.1964272E-02  4.4696578E-17 
       118     -1.7969311E-17 -9.0417882E-17  2.2248964E-01  0.0000000E+00  5.8308494E-02 -3.1697900E-17 
       119      2.3988441E-16 -1.3440335E-16  1.6646209E-01  0.0000000E+00  5.3269251E-02 -2.1606368E-17 
       120     -1.1014454E-16 -1.2384207E-16  1.1619844E-01  0.0000000E+00  4.6746578E-02  2.0159139E-17 
       121      1.8109728E-17 -1.1577614E-16  7.3233946E-02  0.0000000E+00  3.8633785E-02  4.6984926E-17 
       122     -2.1302094E-17 -7.5867391E-18  3.9215649E-02  0.0000000E+00  2.8811944E-02  1.3051452E-16 
       123     -3.4707292E-17  1.0265474E-16  1.5637082E-02  0.0000000E+00  1.8825228E-02  1.1527864E-17 
       124      1.9138392E-17  4.0734161E-17  1.2225504E-03  0.0000000E+00  1.0889611E-02 -4.4769418E-17 
       125      2.3572263E-18  4.3885016E-17 -6.5879075E-03  0.0000000E+00  5.6237358E-03  9.3050769E-18 
       126      4.7388909E-17  5.3978626E-17 -1.0421081E-02  0.0000000E+00  2.7308647E-03  2.1587445E-17 
       127      2.2675838E-17  6.9125128E-17 -1.2318278E-02  0.0000000E+00  1.4472590E-03 -3.1035222E-18 
       128     -2.3645578E-16  2.5539632E-17 -1.3419362E-02  0.0000000E+00  7.8524256E-04 -2.6665833E-17 
       129     -3.7940516E-16  2.7879104E-17 -1.3903560E-02  0.0000000E+00  2.1184889E-04 -2.4375616E-18 
       130      2.9423764E-17  2.7651710E-17 -1.3857089E-02  0.0000000E+00 -2.7751291E-04  4.1362198E-20 
       131      3.1299256E-17  1.5852663E-17 -1.3361964E-02  0.0000000E+00 -6.8642995E-04 -3.7674901E-18 
       132      4.6968956E-17  3.0579677E-17 -1.2497206E-02  0.0000000E+00 -1.0176164E-03  1.2270327E-17 
       133     -2.2747736E-16  3.1887448E-17 -1.1339376E-02  0.0000000E+00 -1.2730588E-03 -1.8554020E-17 
       134      1.5111395E-17 -8.5304087E-18 -9.9635850E-03  0.0000000E+00 -1.4536432E-03 -2.1045312E-17 
       135     -2.2358133E-16 -5.0658570E-18 -8.4445588E-03  0.0000000E+00 -1.5595371E-03 -3.3625952E-17 
       136      3.3614310E-17 -7.2411736E-17 -6.8570219E-03  0.0000000E+00 -1.5904903E-03 -3.2654501E-17 
       137      9.5871580E-17 -5.5027003E-17 -5.2762611E-03  0.0000000E+00 -1.5454743E-03  4.3105082E-17 
       138      4.4567153E-18 -1.5344672E-17 -3.7790727E-03  0.0000000E+00 -1.4225932E-03 -4.8549868E-17 
       139     -1.7941010E-17 -1.3590191E-16 -2.4445057E-03  0.0000000E+00 -1.2192598E-03 -1.9649889E-17 
       140     -6.7028844E-18 -3.6780039E-17 -1.3545231E-03  0.0000000E+00 -9.3224459E-04  8.2583442E-17 
       141     -2.8206107E-17 -1.6255970E-18 -5.8497289E-04  0.0000000E+00 -6.1554221E-04  3.6371182E-17 
       142     -1.1294678E-17  3.0502678E-17 -1.1523946E-04  0.0000000E+00 -3.4795920E-04 -2.7521677E-17 
       143     -7.5838852E-18 -3.4208257E-17  1.2356670E-04  0.0000000E+00 -1.5598383E-04  8.6115928E-18 
       144      4.6090256E-17  4.7033477E-17  2.0888160E-04  0.0000000E+00 -3.6813046E-05  3.3149854E-17 
       145      3.0527803E-17  9.8399018E-18  2.0672213E-04  0.0000000E+00  2.5272864E-05 -1.0212514E-16 
       146      5.3583668E-17 -1.1767560E-16  1.6477057E-04  0.0000000E+00  4.8812279E-05  2.0923680E-17 
       147     -1.4234171E-17  3.5649655E-17  1.1283480E-04  0.0000000E+00  4.9964318E-05  7.6138014E-17 
       148      1.5727413E-17 -8.8234443E-18  6.6598429E-05  0.0000000E+00  4.0594447E-05 -9.5405664E-17 
       149      7.2811685E-17 -1.1983686E-16  3.2143685E-05  0.0000000E+00  2.8242849E-05 -8.3322401E-17 
       150      9.3978374E-18 -1.6085240E-16  9.9331207E-06  0.0000000E+00  1.6967317E-05 -3.3251814E-18 
       151      3.9301382E-18 -1.3568955E-16 -2.2465005E-06  0.0000000E+00  8.4208035E-06  2.3414267E-17 
       152     -1.3409331E-17 -1.1670585E-16 -7.4006830E-06  0.0000000E+00  2.8227911E-06  2.6595913E-17 
       153      5.5055483E-18 -7.2694137E-17 -8.3035754E-06  0.0000000E+00 -3.1019476E-07  6.5104245E-17 
       154      1.2819854E-17  1.3821451E-17 -7.0731236E-06  0.0000000E+00 -1.6890059E-06  1.4395484E-16 
       155      2.6695321E-17  1.8881205E-16 -5.1057965E-06  0.0000000E+00 -1.9881531E-06  6.7336288E-17 
       156      1.4502840E-17  1.4485875E-16 -3.1895634E-06  0.0000000E+00 -1.7317206E-06 -8.0586520E-17 
       157      2.1238677E-17  4.1309883E-17 -1.6765119E-06  0.0000000E+00 -1.2706826E-06 -1.0464365E-16 
       158      8.3474165E-18 -4.4917381E-17 -6.4865520E-07  0.0000000E+00 -8.0691215E-07 -4.5525236E-17 
       159      2.2389547E-17 -5.5152980E-17 -4.7556382E-08  0.0000000E+00 -4.3378750E-07 -6.3864537E-19 
       160     -2.0102223E-17 -6.6834653E-17  2.3821976E-07  0.0000000E+00 -1.7627958E-07 -4.8407451E-17 
       161      4.5880055E-18 -1.5743918E-16  3.2239502E-07  0.0000000E+00 -2.2959281E-08 -1.0554414E-16 
       162      1.6867590E-18 -2.6409031E-16  2.9720650E-07  0.0000000E+00  5.2077024E-08 -3.5608461E-17 
       163      1.6202614E-17 -2.2094953E-16  2.2673112E-07  0.0000000E+00  7.6253941E-08  9.3730335E-17 
       164      2.0798089E-17 -7.7871819E-17  1.4940143E-07  0.0000000E+00  7.2259365E-08  1.4214535E-16 
       165      6.7824092E-17  5.1777245E-17  8.4242252E-08  0.0000000E+00  5.6105367E-08  9.7517612E-17 
       166      2.5694846E-17  9.5124125E-17  3.7589841E-08  0.0000000E+00  3.7560530E-08 -1.4994154E-17 
       167      1.1329477E-17  3.7536499E-17  8.6913485E-09  0.0000000E+00  2.1590799E-08 -5.5279162E-17 
       168      2.5294890E-17 -9.8164151E-19 -6.3176860E-09  0.0000000E+00  9.9697878E-09 -5.5796625E-17 
       169      2.6110307E-17 -6.4936381E-17 -1.1966401E-08  0.0000000E+00  2.6509846E-09 -3.6946870E-17 
       170      1.6089487E-17 -6.5493961E-17 -1.2191963E-08  0.0000000E+00 -1.2394448E-09  7.6441615E-17 
       171     -1.5069321E-17  6.6712001E-17 -9.8793719E-09  0.0000000E+00 -2.7824696E-09  9.1613040E-17 
       172     -1.0195706E-17  1.0249099E-16 -6.8582499E-09  0.0000000E+00 -2.9403606E-09  2.2122188E-17 
       173     -3.0523279E-17  1.1211492E-16 -4.1101730E-09  0.0000000E+00 -2.4301974E-09 -7.1938498E-17 
       174     -8.5107695E-18 -4.5833751E-17 -2.0322402E-09  0.0000000E+00 -1.7140628E-09 -1.8197673E-16 
       175     -1.0319861E-18 -2.1930984E-16 -6.7416380E-10  0.0000000E+00 -1.0451612E-09 -5.5700086E-17 
       176      2.3980707E-18 -1.6058766E-16  8.3831302E-11  0.0000000E+00 -5.3051172E-10  6.6091874E-17 
       177      9.8169456E-18 -1.0845923E-16  4.1572257E-10  0.0000000E+00 -1.8876562E-10  1.9777370E-17 
       178      2.8090405E-17 -9.4209800E-17  4.8593841E-10  0.0000000E+00  5.7598875E-12  1.1207896E-16 
       179      8.2650816E-18  1.0861284E-16  4.2193674E-10  0.0000000E+00  9.4051577E-11  1.6576777E-16 
       180      2.5111726E-17  1.9449331E-16  3.0890838E-10  0.0000000E+00  1.1601096E-10 -4.4752420E-17 
       181      2.5005496E-17  4.7534155E-17  1.9573215E-10  0.0000000E+00  1.0312262E-10 -1.0441214E-16 
       182      1.6535493E-17 -1.2893499E-18  1.0491181E-10  0.0000000E+00  7.6764248E-11 -5.6895919E-17 
       183     -9.2997422E-18 -7.1149248E-17  4.2365928E-11  0.0000000E+00  4.9434118E-11 -6.0062254E-17 
       184     -8.0683343E-18 -1.1182675E-16  5.2141936E-12  0.0000000E+00  2.7072507E-11  1.0198960E-17 
       185     -1.0927574E-17 -5.1617543E-17 -1.2900176E-11  0.0000000E+00  1.1426804E-11  5.0490412E-17 
       186      1.3270720E-18 -1.0721715E-17 -1.8672418E-11  0.0000000E+00  1.9693232E-12  5.7206935E-17 
       187     -1.5191532E-17  6.0542511E-17 -1.7626579E-11  0.0000000E+00 -2.7691907E-12  2.2044290E-17 
       188     -3.2454010E-17  3.7595618E-17 -1.3652938E-11  0.0000000E+00 -4.3992952E-12 -5.4462738E-18 
       189     -4.2780085E-17  6.0668183E-17 -9.1205161E-12  0.0000000E+00 -4.2770437E-12  5.6544011E-17 
       190     -5.1276314E-17  1.2792608E-16 -5.2293266E-12  0.0000000E+00 -3.3732245E-12 -2.1155413E-17 
       191     -6.0184146E-17  1.5401629E-17 -2.4041346E-12  0.0000000E+00 -2.2893023E-12 -6.6874306E-17 
       192     -5.8213852E-17  2.3308778E-17 -6.2861942E-13  0.0000000E+00 -1.3377791E-12  5.7536427E-17 
       193     -5.4736718E-17  1.0694554E-16  3.1312887E-13  0.0000000E+00 -6.3608103E-13  5.0481071E-17 
       194     -4.2147694E-17  1.2605904E-16  6.8598518E-13  0.0000000E+00 -1.8859687E-13 -1.2198020E-17 
       195     -2.8912123E-17  9.3946269E-17  7.2470551E-13  0.0000000E+00  5.2923858E-14 -7.9505636E-18 
       196     -1.7677405E-17  1.0851666E-16  6.0394673E-13  0.0000000E+00  1.5179994E-13 -4.1460103E-17 
       197     -1.7980363E-17  1.6847879E-17  4.3522937E-13  0.0000000E+00  1.6604665E-13 -2.8640750E-17 
       198     -1.9697887E-17  4.8541027E-17  2.7854347E-13  0.0000000E+00  1.4017301E-13 -2.6842187E-17 
       199     -2.8357987E-17 -4.1651109E-17  1.5652499E-13  0.0000000E+00  1.0442075E-13 -4.3185046E-17 
       200     -2.7464715E-17 -2.8924297E-17  6.8341327E-14  0.0000000E+00  7.6806065E-14  2.1935951E-17 
       201     -2.6810347E-17  0.0000000E+00  0.0000000E+00  0.0000000E+00  6.6642845E-14  2.9975214E-17 

 MAXIMUM         2.3988E-16  8.8932E-16   1.000       0.000      6.5551E-02  1.6577E-16
 AT NODE               119          98         101           1         114         179

 MINIMUM        -3.7941E-16 -3.9940E-16 -1.3904E-02   0.000     -6.5512E-02 -1.8198E-16
 AT NODE               129         114         129           1          88         174




                    E I G E N V A L U E    N U M B E R     2
  
  
  
  
                                       N O D E   O U T P U T
  
  
  
  
   THE FOLLOWING TABLE IS PRINTED FOR NODES BELONGING TO NODE SET PIPE
  
       NODE FOOT-  U1             U2             U3             UR1            UR2            UR3          
            NOTE
  
         2     -1.7885393E-04  1.8963220E-10  1.7155875E-17  0.0000000E+00 -8.7890242E-17  3.9762911E-10 
         3     -3.5777418E-04  8.0401660E-10  1.5598789E-16  0.0000000E+00 -8.6293320E-17  8.4772701E-10 
         4     -5.3682709E-04  1.8900908E-09  1.7002188E-16  0.0000000E+00  2.5817592E-17  1.3278097E-09 
         5     -7.1607907E-04  3.4528873E-09  1.1037647E-16  0.0000000E+00  1.0176597E-16  1.7674725E-09 
         6     -8.9559657E-04  5.3939061E-09 -1.4306757E-17  0.0000000E+00  4.8195269E-17  2.0206657E-09 
         7     -1.0754462E-03  7.4216909E-09  6.3573894E-18  0.0000000E+00  2.0381508E-17  1.8393995E-09 
         8     -1.2558748E-03  8.9399777E-09 -6.1358200E-17  0.0000000E+00  1.1523070E-17  8.5569504E-10 
         9     -1.4365889E-03  8.9216573E-09 -3.7872733E-18  0.0000000E+00 -8.4630942E-17 -1.4057994E-09 
        10     -1.6178356E-03  5.8255488E-09  8.8692776E-17  0.0000000E+00 -3.8566826E-17 -5.4813833E-09 
        11     -1.7995005E-03 -1.0745663E-09  7.2155949E-17  0.0000000E+00  3.1025583E-17 -4.9002255E-09 
        12     -1.9820144E-03 -3.0290772E-09  3.9808203E-17  0.0000000E+00  2.4246072E-17  2.1124649E-10 
        13     -2.1652633E-03 -1.0244313E-09  1.4081636E-17  0.0000000E+00  4.4884365E-17  3.0921385E-09 
        14     -2.3493151E-03  2.8081872E-09 -5.5100379E-17  0.0000000E+00  1.1377574E-16  3.8942967E-09 
        15     -2.5342380E-03  6.4104105E-09 -1.9316474E-16  0.0000000E+00  5.4826868E-17  2.5773562E-09 
        16     -2.7201007E-03  7.5626861E-09 -1.6002719E-16  0.0000000E+00 -4.5845097E-17 -1.1370167E-09 
        17     -2.9069720E-03  3.6620654E-09 -1.1536408E-16  0.0000000E+00 -5.6341646E-17 -7.6927240E-09 
        18     -3.0949212E-03 -6.9787522E-09 -4.9378403E-17  0.0000000E+00 -6.4025320E-17 -1.0318398E-08 
        19     -3.2840180E-03 -1.6120578E-08  1.2897099E-17  0.0000000E+00 -3.8140680E-17 -8.9532920E-09 
        20     -3.4743326E-03 -2.5304295E-08  3.0541760E-17  0.0000000E+00 -3.9454130E-17 -1.0097982E-08 
        21     -3.6659355E-03 -3.6541722E-08  8.7256951E-17  0.0000000E+00 -5.0261277E-17 -1.2591657E-08 
        22     -3.8588977E-03 -5.0424948E-08  1.1837537E-16  0.0000000E+00  6.8426732E-18 -1.4710038E-08 
        23     -4.0532909E-03 -6.5491467E-08  8.6991417E-17  0.0000000E+00 -8.8915199E-18 -1.4011024E-08 
        24     -4.2491870E-03 -7.8869977E-08  1.2333940E-16  0.0000000E+00  4.1341029E-17 -1.4672427E-08 
        25     -4.4466588E-03 -9.6031835E-08 -3.8561447E-18  0.0000000E+00  1.0903134E-16 -2.0139111E-08 
        26     -4.6457794E-03 -1.1954959E-07 -7.3089657E-17  0.0000000E+00  3.1650428E-17 -2.5634658E-08 
        27     -4.8466228E-03 -1.4671658E-07 -7.8233242E-17  0.0000000E+00  1.0688584E-17 -2.5232601E-08 
        28     -5.0492632E-03 -1.6968668E-07 -1.0148265E-16  0.0000000E+00  4.4779717E-17 -1.9234217E-08 
        29     -5.2537761E-03 -1.8487941E-07 -1.4974889E-16  0.0000000E+00 -1.5372939E-17 -6.5271844E-09 
        30     -5.4602370E-03 -1.8230558E-07 -7.3275522E-17  0.0000000E+00 -6.9686163E-17  1.4949054E-08 
        31     -5.6687226E-03 -1.5435472E-07 -2.4057475E-17  0.0000000E+00 -2.7149366E-17  4.7635995E-08 
        32     -5.8793103E-03 -8.6385252E-08 -1.0261495E-17  0.0000000E+00 -2.7297789E-17  9.2999810E-08 
        33     -6.0920780E-03  3.1868380E-08  2.4235604E-17  0.0000000E+00  5.8602694E-19  1.4984722E-07 
        34     -6.3071048E-03  2.1378158E-07 -1.3792574E-17  0.0000000E+00  1.7806024E-17  2.1977605E-07 
        35     -6.5244702E-03  4.7074288E-07  4.7682856E-18  0.0000000E+00 -4.3158947E-17  2.9600793E-07 
        36     -6.7442550E-03  8.0351897E-07  6.5647772E-17  0.0000000E+00 -4.4444704E-17  3.6775084E-07 
        37     -6.9665406E-03  1.2028529E-06  9.0725046E-17  0.0000000E+00 -2.8435618E-17  4.2445968E-07 
        38     -7.1914095E-03  1.6461747E-06  1.1858227E-16  0.0000000E+00  9.6954441E-18  4.4363354E-07 
        39     -7.4189450E-03  2.0787312E-06  7.5340300E-17  0.0000000E+00  2.2684330E-17  3.8778746E-07 
        40     -7.6492315E-03  2.4062025E-06  8.0784777E-17  0.0000000E+00 -2.6503691E-18  2.2094244E-07 
        41     -7.8823544E-03  2.5025165E-06  7.5494826E-17  0.0000000E+00  2.1177620E-17 -8.7688698E-08 
        42     -8.1184001E-03  2.2117909E-06  4.0819378E-17  0.0000000E+00  2.0072094E-17 -5.6239911E-07 
        43     -8.3574563E-03  1.3641823E-06  3.5502567E-17  0.0000000E+00  1.2683464E-17 -1.1937009E-06 
        44     -8.5996114E-03 -1.7252387E-07  1.5493930E-17  0.0000000E+00  2.1057737E-17 -1.9103862E-06 
        45     -8.8449555E-03 -2.4194466E-06 -4.6961382E-18  0.0000000E+00  2.6133028E-17 -2.5419475E-06 
        46     -9.0935793E-03 -5.1660446E-06 -2.5530702E-17  0.0000000E+00 -2.8500532E-17 -2.8038691E-06 
        47     -9.3455752E-03 -7.8579129E-06  5.3187438E-17  0.0000000E+00 -9.9745450E-17 -2.2588440E-06 
        48     -9.6010364E-03 -9.4069069E-06  1.4353595E-16  0.0000000E+00  2.0907120E-17 -2.9882392E-07 
        49     -9.8600575E-03 -8.0582357E-06  1.8187851E-17  0.0000000E+00  9.2549816E-17  3.7700619E-06 
        50     -1.0122734E-02 -1.3599402E-06 -1.2134390E-17  0.0000000E+00  1.0685258E-18  1.0589207E-05 
        51     -1.0389164E-02  1.3681292E-05  2.6207646E-18  0.0000000E+00 -1.2877726E-17  2.0487702E-05 
        52     -1.0659446E-02  4.0096619E-05  1.4841731E-17  0.0000000E+00 -2.5170148E-17  3.3021292E-05 
        53     -1.0933680E-02  7.9882748E-05  4.4392831E-17  0.0000000E+00  3.9383934E-18  4.6335909E-05 
        54     -1.1211971E-02  1.3222038E-04  6.5048088E-18  0.0000000E+00  6.4382745E-18  5.6331921E-05 
        55     -1.1494424E-02  1.9075639E-04  3.5427166E-17  0.0000000E+00 -1.4248803E-17  5.5778146E-05 
        56     -1.1781143E-02  2.4008882E-04  2.6784166E-17  0.0000000E+00  1.5097522E-17  3.3604704E-05 
        57     -1.2072225E-02  2.5168959E-04  1.3103470E-17  0.0000000E+00 -1.4971918E-17 -2.5288316E-05 
        58     -1.2367746E-02  1.8012785E-04  5.8766485E-17  0.0000000E+00 -2.5099956E-17 -1.3899152E-04 
        59     -1.2667738E-02 -3.8782043E-05  5.2870584E-17  0.0000000E+00  2.7616358E-17 -3.2543861E-04 
        60     -1.2975219E-02 -4.9114117E-04  3.9732858E-18  0.0000000E+00  4.7390182E-17 -5.9915720E-04 
        61     -1.3283986E-02 -1.2539863E-03 -4.9567622E-17  0.0000000E+00  8.2171640E-17 -9.4905606E-04 
        62     -1.3596938E-02 -2.3967384E-03 -1.5692669E-16  0.0000000E+00  7.0967744E-17 -1.3389756E-03 
        63     -1.3913988E-02 -3.9242808E-03 -1.6760901E-16  0.0000000E+00 -2.1831552E-17 -1.6771356E-03 
        64     -1.4230105E-02 -5.7340089E-03 -1.1941470E-16  0.0000000E+00 -4.2742848E-17 -1.9065778E-03 
        65     -1.4545501E-02 -7.7220621E-03 -9.7150150E-17  0.0000000E+00 -1.3749277E-17 -2.0362820E-03 
        66     -1.4860533E-02 -9.7923416E-03 -8.6620234E-17  0.0000000E+00 -3.4007221E-17 -2.0726356E-03 
        67     -1.5175656E-02 -1.1853585E-02 -2.6949035E-17  0.0000000E+00  1.3763796E-17 -2.0185032E-03 
        68     -1.5491370E-02 -1.3815259E-02 -1.0869204E-16  0.0000000E+00  5.8794350E-17 -1.8723721E-03 
        69     -1.5808126E-02 -1.5582985E-02 -1.2160745E-16  0.0000000E+00 -7.9533217E-17 -1.6279224E-03 
        70     -1.6126211E-02 -1.7053475E-02  3.2208702E-17  0.0000000E+00 -1.4183635E-16 -1.2734750E-03 
        71     -1.6445540E-02 -1.8108755E-02  1.2971212E-16  0.0000000E+00 -2.3601240E-17 -7.9070826E-04 
        72     -1.6765372E-02 -1.8608550E-02  9.4243137E-17  0.0000000E+00  4.2992744E-17 -1.5269382E-04 
        73     -1.7083891E-02 -1.8380875E-02  6.6121610E-17  0.0000000E+00  4.1837473E-17  6.7688446E-04 
        74     -1.7397559E-02 -1.7212687E-02  1.0470573E-19  0.0000000E+00  7.4773629E-17  1.7444157E-03 
        75     -1.7700209E-02 -1.4838785E-02 -8.0899235E-17  0.0000000E+00  9.2374276E-17  3.1088732E-03 
        76     -1.7987535E-02 -1.0856666E-02 -1.6532277E-16  0.0000000E+00  1.7056044E-17  5.2696607E-03 
        77     -1.8232822E-02 -4.0199051E-03 -1.0555596E-16  0.0000000E+00 -2.7922355E-17  9.0608619E-03 
        78     -1.8382740E-02  7.6407191E-03 -9.9565700E-17  0.0000000E+00 -1.6346605E-17  1.5043562E-02 
        79     -1.8352707E-02  2.6458391E-02 -5.5682838E-17  0.0000000E+00 -7.8017813E-17  2.3293946E-02 
        80     -1.8038184E-02  5.4497311E-02  6.1138277E-17  0.0000000E+00 -5.5871614E-17  3.3060437E-02 
        81     -1.7355850E-02  9.2506819E-02  4.6582029E-17  0.0000000E+00 -2.9721249E-17  4.2282118E-02 
        82     -1.6314801E-02  1.3877034E-01  8.9873741E-17  0.0000000E+00 -1.1511560E-16  4.9634773E-02 
        83     -1.4948002E-02  1.9096513E-01  2.0014845E-16  0.0000000E+00 -3.2135340E-17  5.5266797E-02 
        84     -1.3326900E-02  2.4857935E-01  1.7129645E-16  0.0000000E+00  6.5617160E-17  5.9462156E-02 
        85     -1.1518354E-02  3.0968822E-01  7.2330000E-17  0.0000000E+00  4.3124006E-17  6.2302582E-02 
        86     -9.5933788E-03  3.7300560E-01  1.3621272E-16  0.0000000E+00  9.0092270E-17  6.3918124E-02 
        87     -7.6243164E-03  4.3736416E-01 -2.4484455E-17  0.0000000E+00  7.4046868E-17  6.4418778E-02 
        88     -5.6817671E-03  5.0169869E-01 -3.9728871E-17  0.0000000E+00 -4.9398578E-17  6.3900092E-02 
        89     -3.8318981E-03  5.6503341E-01 -4.0390675E-17  0.0000000E+00 -2.2945081E-17  6.2445776E-02 
        90     -2.1279518E-03  6.2647177E-01 -6.9027836E-17  0.0000000E+00 -1.8551542E-17  6.0135022E-02 
        91     -6.0894341E-04  6.8519841E-01 -1.0911991E-17  0.0000000E+00 -1.2133702E-17  5.7054296E-02 
        92      6.8964346E-04  7.4048786E-01  3.2071266E-17  0.0000000E+00  1.5041279E-18  5.3286236E-02 
        93      1.7479960E-03  7.9169004E-01  8.6628095E-17  0.0000000E+00 -1.3180859E-18  4.8909702E-02 
        94      2.5565431E-03  8.3823779E-01  4.0034984E-17  0.0000000E+00 -6.0572897E-18  4.4003168E-02 
        95      3.1200519E-03  8.7963567E-01 -8.5775087E-17  0.0000000E+00 -4.8145077E-17  3.8630679E-02 
        96      3.4481030E-03  9.1544748E-01 -7.9707844E-18  0.0000000E+00  1.5299792E-18  3.2858977E-02 
        97      3.5634984E-03  9.4531032E-01  2.0456419E-16  0.0000000E+00  1.1799334E-17  2.6751894E-02 
        98      3.5015745E-03  9.6891420E-01  7.4928313E-17  0.0000000E+00 -2.0933009E-17  2.0361012E-02 
        99      3.2961195E-03  9.8600378E-01  2.1164806E-17  0.0000000E+00 -3.5933980E-17  1.3752174E-02 
       100      2.9940827E-03  9.9640021E-01 -2.2676136E-17  0.0000000E+00 -6.0819245E-17  7.0020154E-03 
       101      2.6413643E-03  1.0000000E+00  3.5300434E-16  0.0000000E+00 -2.6562252E-17  1.8922071E-04 
       102      2.2879515E-03  9.9678101E-01  3.5520833E-16  0.0000000E+00 -1.2755883E-16 -6.6094310E-03 
       103      1.9836572E-03  9.8679051E-01  5.3579381E-16  0.0000000E+00 -1.6179687E-16 -1.3336079E-02 
       104      1.7743398E-03  9.7012559E-01  6.3864503E-16  0.0000000E+00 -1.5732045E-17 -1.9930977E-02 
       105      1.7069297E-03  9.4695278E-01  4.9401052E-16  0.0000000E+00  6.4542776E-17 -2.6333920E-02 
       106      1.8159019E-03  9.1748960E-01  3.6249617E-16  0.0000000E+00  9.9252305E-17 -3.2484358E-02 
       107      2.1371773E-03  8.8202628E-01  4.3436814E-16  0.0000000E+00  9.3212413E-17 -3.8305920E-02 
       108      2.6938955E-03  8.4092842E-01  1.7873545E-16  0.0000000E+00  6.6296002E-18 -4.3734242E-02 
       109      3.4963929E-03  7.9461709E-01  2.9697474E-16  0.0000000E+00 -4.5505297E-17 -4.8705029E-02 
       110      4.5497785E-03  7.4358945E-01  2.7814847E-16  0.0000000E+00 -2.6411630E-17 -5.3136105E-02 
       111      5.8443929E-03  6.8842747E-01  3.1202898E-16  0.0000000E+00 -6.3978898E-18 -5.6948205E-02 
       112      7.3605399E-03  6.2978509E-01  4.7931626E-16  0.0000000E+00  9.4573788E-17 -6.0075606E-02 
       113      9.0632216E-03  5.6837900E-01  2.3055855E-16  0.0000000E+00  1.2957199E-16 -6.2446690E-02 
       114      1.0914155E-02  5.0500815E-01  3.6355530E-17  0.0000000E+00  3.9160899E-17 -6.3973418E-02 
       115      1.2860477E-02  4.4056232E-01  2.0644779E-17  0.0000000E+00  8.5749337E-18 -6.4569070E-02 
       116      1.4836179E-02  3.7601403E-01 -5.3168856E-17  0.0000000E+00  2.0887169E-17 -6.4147937E-02 
       117      1.6770625E-02  3.1242751E-01 -1.5732822E-17  0.0000000E+00  7.2013171E-18 -6.2607363E-02 
       118      1.8590897E-02  2.5098098E-01  3.6395725E-17  0.0000000E+00 -1.1270768E-17 -5.9825293E-02 
       119      2.0224963E-02  1.9298189E-01  4.1199624E-17  0.0000000E+00  2.5816732E-17 -5.5665752E-02 
       120      2.1600287E-02  1.3988042E-01  1.3057274E-17  0.0000000E+00 -9.5802639E-18 -4.9978893E-02 
       121      2.2651096E-02  9.3284614E-02  4.1706052E-17  0.0000000E+00 -3.2494643E-17 -4.2595946E-02 
       122      2.3341116E-02  5.4983264E-02  5.9466613E-17  0.0000000E+00 -3.0061218E-17 -3.3322758E-02 
       123      2.3662789E-02  2.6713380E-02  6.8441902E-17  0.0000000E+00  2.6527498E-18 -2.3493946E-02 
       124      2.3699846E-02  7.7255204E-03  5.6743315E-17  0.0000000E+00  2.9227915E-17 -1.5188799E-02 
       125      2.3557514E-02 -4.0578353E-03  1.0337795E-17  0.0000000E+00  7.8358408E-17 -9.1669474E-03 
       126      2.3320964E-02 -1.0986446E-02 -8.7036766E-17  0.0000000E+00  4.2140792E-17 -5.3521486E-03 
       127      2.3043901E-02 -1.5043170E-02 -7.3826009E-17  0.0000000E+00 -1.0033143E-17 -3.1777443E-03 
       128      2.2753214E-02 -1.7480184E-02 -6.6970087E-17  0.0000000E+00 -5.5631539E-17 -1.8005395E-03 
       129      2.2451283E-02 -1.8696934E-02  2.8564395E-17  0.0000000E+00 -5.2080660E-17 -7.1762388E-04 
       130      2.2144350E-02 -1.8957304E-02  3.6926941E-17  0.0000000E+00  3.0388854E-17  1.2815377E-04 
       131      2.1836016E-02 -1.8473872E-02 -2.4439583E-17  0.0000000E+00 -1.6274745E-17  7.8222344E-04 
       132      2.1528150E-02 -1.7419391E-02  6.2046213E-17  0.0000000E+00 -5.5677347E-17  1.2798011E-03 
       133      2.1221522E-02 -1.5935742E-02  7.0138148E-17  0.0000000E+00 -2.6454347E-17  1.6473563E-03 
       134      2.0916232E-02 -1.4142663E-02  1.3293497E-16  0.0000000E+00 -5.4824245E-17  1.9029436E-03 
       135      2.0611997E-02 -1.2145628E-02  1.9216213E-16  0.0000000E+00 -1.4295264E-17  2.0578757E-03 
       136      2.0308362E-02 -1.0041468E-02  1.3285890E-16  0.0000000E+00  7.5303729E-17  2.1182745E-03 
       137      2.0004813E-02 -7.9233730E-03  6.0526925E-17  0.0000000E+00  4.3193169E-17  2.0852073E-03 
       138      1.9700883E-02 -5.8859185E-03  5.8156957E-17  0.0000000E+00  9.9807676E-18  1.9552842E-03 
       139      1.9396204E-02 -4.0288617E-03  3.1675251E-17  0.0000000E+00  6.3809746E-17  1.7218053E-03 
       140      1.9090555E-02 -2.4600086E-03 -6.2231320E-17  0.0000000E+00  5.3939573E-17  1.3756594E-03 
       141      1.8791015E-02 -1.2855873E-03 -7.5419337E-17  0.0000000E+00 -4.7849941E-18  9.7565963E-04 
       142      1.8497684E-02 -5.0113924E-04 -6.4887158E-17  0.0000000E+00 -1.7505351E-18  6.1629055E-04 
       143      1.8210722E-02 -3.8992256E-05 -7.8607016E-17  0.0000000E+00  1.7282013E-17  3.3727866E-04 
       144      1.7930249E-02  1.8829161E-04 -9.7751626E-17  0.0000000E+00  2.2213716E-17  1.4467306E-04 
       145      1.7656306E-02  2.6316654E-04 -1.1613838E-16  0.0000000E+00 -5.2555537E-19  2.6894157E-05 
       146      1.7388871E-02  2.5172936E-04 -9.4502660E-17  0.0000000E+00 -3.1062600E-17 -3.4379242E-05 
       147      1.7127878E-02  2.0087869E-04 -6.5578987E-17  0.0000000E+00 -8.3200856E-18 -5.7694415E-05 
       148      1.6873240E-02  1.4015621E-04 -7.5527990E-17  0.0000000E+00  1.9901002E-17 -5.8580568E-05 
       149      1.6624863E-02  8.5582018E-05 -9.3995850E-17  0.0000000E+00 -3.1153194E-18 -4.8454692E-05 
       150      1.6382653E-02  4.3832384E-05 -6.8835213E-17  0.0000000E+00 -3.2592188E-17 -3.4790005E-05 
       151      1.6146519E-02  1.5857419E-05 -4.0265290E-17  0.0000000E+00 -2.1393146E-17 -2.1841804E-05 
       152      1.5916371E-02 -3.3129881E-07 -3.0427147E-17  0.0000000E+00 -1.7970061E-19 -1.1554832E-05 
       153      1.5692124E-02 -7.8178331E-06 -3.7404940E-17  0.0000000E+00  1.8425779E-17 -4.4138833E-06 
       154      1.5473696E-02 -9.6714329E-06 -6.1083887E-17  0.0000000E+00  3.9085837E-18 -9.9599725E-08 
       155      1.5261005E-02 -8.4184416E-06 -3.9787389E-17  0.0000000E+00 -1.6797122E-17  2.0374438E-06 
       156      1.5053973E-02 -5.8755480E-06 -2.8152327E-17  0.0000000E+00 -3.2879557E-17  2.7044698E-06 
       157      1.4852523E-02 -3.1796391E-06  2.2520793E-17  0.0000000E+00 -2.8339827E-17  2.5213605E-06 
       158      1.4656581E-02 -9.2256111E-07  1.7612702E-17  0.0000000E+00  1.3896325E-17  1.9389576E-06 
       159      1.4466073E-02  6.6271409E-07 -2.2281273E-18  0.0000000E+00  4.6101690E-17  1.2525356E-06 
       160      1.4280930E-02  1.5809569E-06 -7.5834121E-17  0.0000000E+00  8.0051790E-17  6.3798873E-07 
       161      1.4101082E-02  1.9535997E-06 -1.4976814E-16  0.0000000E+00  3.4281391E-17  1.7083579E-07 
       162      1.3926462E-02  1.9427762E-06 -1.3194460E-16  0.0000000E+00 -1.0276840E-16 -1.3622999E-07 
       163      1.3757007E-02  1.7000772E-06  4.1254690E-17  0.0000000E+00 -1.5058831E-16 -3.0502694E-07 
       164      1.3592654E-02  1.3484870E-06  1.3555956E-16  0.0000000E+00 -1.3946841E-17 -3.6631496E-07 
       165      1.3433340E-02  9.7869937E-07  7.7507829E-17  0.0000000E+00  6.8695277E-17 -3.5530767E-07 
       166      1.3279007E-02  6.4410723E-07  2.7924287E-17  0.0000000E+00 -1.4917863E-18 -3.0691873E-07 
       167      1.3129599E-02  3.6798718E-07  6.8611615E-17  0.0000000E+00  5.3976568E-18 -2.4341953E-07 
       168      1.2985059E-02  1.5885274E-07  1.6624085E-17  0.0000000E+00  2.2060245E-17 -1.7657802E-07 
[...]
        21     -3.6828801E-03  1.7291546E-07  6.3417594E-09  0.0000000E+00  1.6633318E-10  2.2680460E-07 
        22     -3.8669220E-03  4.4995370E-07  5.8723610E-09  0.0000000E+00  7.1537553E-10  3.3295150E-07 
        23     -4.0509489E-03  8.4110030E-07  4.9367020E-09  0.0000000E+00  1.1102118E-09  4.5302423E-07 
        24     -4.2349602E-03  1.3551264E-06  3.6783310E-09  0.0000000E+00  1.3463727E-09  5.6930252E-07 
        25     -4.4189551E-03  1.9731939E-06  2.2810753E-09  0.0000000E+00  1.3634179E-09  6.4920549E-07 
        26     -4.6029328E-03  2.6401792E-06  9.8853396E-10  0.0000000E+00  1.1653341E-09  6.5177269E-07 
        27     -4.7868928E-03  3.2533823E-06 -3.5115478E-11  0.0000000E+00  8.7957680E-10  5.1711328E-07 
        28     -4.9708342E-03  3.6380654E-06 -7.5689192E-10  0.0000000E+00  5.1096447E-10  1.6845188E-07 
        29     -5.1547564E-03  3.5407964E-06 -1.0279131E-09  0.0000000E+00 -2.9492638E-11 -4.7213454E-07 
        30     -5.3386587E-03  2.6278693E-06 -6.6078903E-10  0.0000000E+00 -7.9249667E-10 -1.5024976E-06 
        31     -5.5225402E-03  4.5420913E-07  5.9855031E-10  0.0000000E+00 -1.7976385E-09 -3.0161556E-06 
        32     -5.7064004E-03 -3.4952807E-06  2.9290780E-09  0.0000000E+00 -2.7672290E-09 -5.0685474E-06 
        33     -5.8902385E-03 -9.7715073E-06  6.0422151E-09  0.0000000E+00 -3.2025704E-09 -7.6468245E-06 
        34     -6.0740538E-03 -1.8855318E-05  9.1840059E-09  0.0000000E+00 -2.7521799E-09 -1.0619734E-05 
        35     -6.2578456E-03 -3.1039471E-05  1.1407536E-08  0.0000000E+00 -1.4868442E-09 -1.3762542E-05 
        36     -6.4416132E-03 -4.6338121E-05  1.2123945E-08  0.0000000E+00 -2.2527584E-11 -1.6654736E-05 
        37     -6.6253559E-03 -6.4193512E-05  1.1532203E-08  0.0000000E+00  9.7796130E-10 -1.8623989E-05 
        38     -6.8090729E-03 -8.3228272E-05  1.0263167E-08  0.0000000E+00  1.4162032E-09 -1.8463738E-05 
        39     -6.9927637E-03 -1.0043138E-04  8.7410972E-09  0.0000000E+00  1.6080588E-09 -1.4191876E-05 
        40     -7.1764274E-03 -1.1054765E-04  7.0492695E-09  0.0000000E+00  1.7854519E-09 -3.5689669E-06 
        41     -7.3600632E-03 -1.0605001E-04  5.1612866E-09  0.0000000E+00  2.0130440E-09  1.6126136E-05 
        42     -7.5436699E-03 -7.6254134E-05  3.0402960E-09  0.0000000E+00  2.1431487E-09  4.8020607E-05 
        43     -7.7272459E-03 -7.5625005E-06  9.2406543E-10  0.0000000E+00  1.9925936E-09  9.4547332E-05 
        44     -7.9107891E-03  1.1552744E-04 -9.2159984E-10  0.0000000E+00  1.7029842E-09  1.5716186E-04 
        45     -8.0942965E-03  3.0936817E-04 -2.4666201E-09  0.0000000E+00  1.3195979E-09  2.3540818E-04 
        46     -8.2777653E-03  5.8815399E-04 -3.5169127E-09  0.0000000E+00  6.8171600E-10  3.2454823E-04 
        47     -8.4611918E-03  9.5836174E-04 -3.7886726E-09  0.0000000E+00 -1.9762253E-10  4.1316485E-04 
        48     -8.6445749E-03  1.4109369E-03 -3.1145185E-09  0.0000000E+00 -1.1168357E-09  4.8067019E-04 
        49     -8.8279176E-03  1.9110030E-03 -1.6063352E-09  0.0000000E+00 -1.7294121E-09  4.9623294E-04 
        50     -9.0112278E-03  2.3887880E-03  2.1603439E-10  0.0000000E+00 -1.5886680E-09  4.2442017E-04 
        51     -9.1945171E-03  2.7371600E-03  1.4358563E-09  0.0000000E+00 -6.5397551E-10  2.1684910E-04 
        52     -9.3777972E-03  2.7903736E-03  1.4817926E-09  0.0000000E+00  5.2964158E-10 -1.8309594E-04 
        53     -9.5610616E-03  2.3295294E-03  4.5780485E-10  0.0000000E+00  1.2313543E-09 -8.3152990E-04 
        54     -9.7442530E-03  1.0746432E-03 -8.1770907E-10  0.0000000E+00  9.7568477E-10 -1.7961335E-03 
        55     -9.9272140E-03 -1.3248872E-03 -1.3872333E-09  0.0000000E+00  9.1907848E-11 -3.1342796E-03 
        56     -1.0109608E-02 -5.2593179E-03 -1.0076394E-09  0.0000000E+00 -7.6326320E-10 -4.8662695E-03 
        57     -1.0290840E-02 -1.1113281E-02  7.7815599E-11  0.0000000E+00 -1.2562740E-09 -6.9359633E-03 
        58     -1.0470027E-02 -1.9157421E-02  1.4330219E-09  0.0000000E+00 -1.3258303E-09 -9.1668140E-03 
        59     -1.0646093E-02 -2.9430127E-02  2.6807565E-09  0.0000000E+00 -1.1010635E-09 -1.1302774E-02 
        60     -1.0819811E-02 -4.1810324E-02  3.5854063E-09  0.0000000E+00 -5.4036740E-10 -1.2960486E-02 
        61     -1.0987195E-02 -5.5244827E-02  3.7238780E-09  0.0000000E+00  3.0371989E-10 -1.3285878E-02 
        62     -1.1152022E-02 -6.7977744E-02  2.9838719E-09  0.0000000E+00  1.1194838E-09 -1.1196311E-02 
        63     -1.1319697E-02 -7.7040572E-02  1.5199284E-09  0.0000000E+00  1.7251088E-09 -5.5362407E-03 
        64     -1.1495443E-02 -7.8538293E-02 -3.8543308E-10  0.0000000E+00  1.8480883E-09  3.1902265E-03 
        65     -1.1686340E-02 -7.0528047E-02 -2.0543726E-09  0.0000000E+00  1.2550527E-09  1.2714478E-02 
        66     -1.1893056E-02 -5.3370308E-02 -2.8220162E-09  0.0000000E+00  2.2642578E-10  2.0689350E-02 
        67     -1.2107878E-02 -2.9733358E-02 -2.5106770E-09  0.0000000E+00 -7.8441757E-10  2.5185625E-02 
        68     -1.2317303E-02 -3.7768014E-03 -1.3098655E-09  0.0000000E+00 -1.4581895E-09  2.5045772E-02 
        69     -1.2507522E-02  1.9500195E-02  3.1143502E-10  0.0000000E+00 -1.5719969E-09  1.9788259E-02 
        70     -1.2671706E-02  3.4988336E-02  1.7339564E-09  0.0000000E+00 -1.0927413E-09  9.6872673E-03 
        71     -1.2818075E-02  3.8215335E-02  2.4378428E-09  0.0000000E+00 -2.5874335E-10 -4.3557968E-03 
        72     -1.2975514E-02  2.5794357E-02  2.2305542E-09  0.0000000E+00  6.9881754E-10 -2.1292940E-02 
        73     -1.3197118E-02 -4.7165416E-03  1.0683645E-09  0.0000000E+00  1.4847686E-09 -4.0322028E-02 
        74     -1.3563655E-02 -5.5172995E-02 -6.4226007E-10  0.0000000E+00  1.7012379E-09 -6.1323838E-02 
        75     -1.4192849E-02 -1.2787589E-01 -2.2321489E-09  0.0000000E+00  1.3157133E-09 -8.5445278E-02 
        76     -1.5265169E-02 -2.2650712E-01 -3.2142154E-09  0.0000000E+00  5.7422046E-10 -1.1229951E-01 
        77     -1.6988611E-02 -3.5242186E-01 -3.3603354E-09  0.0000000E+00 -2.8489385E-10 -1.3893555E-01 
        78     -1.9555614E-02 -5.0335924E-01 -2.6800857E-09  0.0000000E+00 -9.2980664E-10 -1.5959222E-01 
        79     -2.2975989E-02 -6.6876095E-01 -1.5844577E-09  0.0000000E+00 -1.0823840E-09 -1.6335306E-01 
        80     -2.6808164E-02 -8.2507839E-01 -5.9101522E-10  0.0000000E+00 -7.8911398E-10 -1.3740589E-01 
        81     -2.9958291E-02 -9.3616921E-01 -3.6903019E-11  0.0000000E+00 -3.1416127E-10 -6.7275881E-02 
        82     -3.0569461E-02 -9.5306513E-01  5.2295897E-11  0.0000000E+00  7.2373360E-11  4.2055695E-02 
        83     -2.7315847E-02 -8.5160431E-01 -1.3667023E-10  0.0000000E+00  2.0666703E-10  1.6263953E-01 
        84     -1.9813441E-02 -6.3061924E-01 -3.0937745E-10  0.0000000E+00  4.5855926E-11  2.7004635E-01 
        85     -8.8131296E-03 -3.1790817E-01 -2.0282187E-10  0.0000000E+00 -2.6458669E-10  3.3932581E-01 
        86      3.9745219E-03  3.9155801E-02  1.9884389E-10  0.0000000E+00 -4.5337116E-10  3.5569349E-01 
        87      1.6351310E-02  3.8391257E-01  6.6215586E-10  0.0000000E+00 -3.9452283E-10  3.1503656E-01 
        88      2.6152879E-02  6.6060642E-01  9.4561094E-10  0.0000000E+00 -8.8636377E-11  2.2296950E-01 
        89      3.1735800E-02  8.2357409E-01  8.3543074E-10  0.0000000E+00  2.4091848E-10  9.3450654E-02 
        90      3.2340359E-02  8.4471142E-01  4.9820076E-10  0.0000000E+00  3.7540318E-10 -5.2789096E-02 
        91      2.8224732E-02  7.1946036E-01  8.8475300E-11  0.0000000E+00  4.8222592E-10 -1.9035992E-01 
        92      2.0614532E-02  4.6947853E-01 -4.6617438E-10  0.0000000E+00  5.8329850E-10 -2.9528498E-01 
        93      1.1299996E-02  1.3736656E-01 -1.0488494E-09  0.0000000E+00  5.1277059E-10 -3.4973890E-01 
        94      2.2117999E-03 -2.1992735E-01 -1.4550867E-09  0.0000000E+00  2.2473019E-10 -3.4419425E-01 
        95     -5.0758539E-03 -5.4111204E-01 -1.4698663E-09  0.0000000E+00 -2.2949818E-10 -2.7960026E-01 
        96     -9.6223794E-03 -7.7115930E-01 -1.0024393E-09  0.0000000E+00 -6.5040746E-10 -1.6751791E-01 
        97     -1.1348141E-02 -8.7137139E-01 -1.8451600E-10  0.0000000E+00 -9.7699501E-10 -2.6968365E-02 
        98     -1.0885635E-02 -8.2410390E-01  9.1864598E-10  0.0000000E+00 -1.1022350E-09  1.1949408E-01 
        99     -9.3201627E-03 -6.3556850E-01  1.9454498E-09  0.0000000E+00 -7.8912777E-10  2.4696079E-01 
       100     -7.8063739E-03 -3.3715444E-01  2.4323198E-09  0.0000000E+00 -9.2059439E-11  3.3284360E-01 
       101     -7.2844007E-03  2.0636359E-02  2.1012334E-09  0.0000000E+00  7.7287435E-10  3.6217079E-01 
       102     -8.0417265E-03  3.7683454E-01  9.0798282E-10  0.0000000E+00  1.5081862E-09  3.2975453E-01 
       103     -9.7685904E-03  6.7067987E-01 -8.3861106E-10  0.0000000E+00  1.7863061E-09  2.4089138E-01 
       104     -1.1504742E-02  8.5171464E-01 -2.5415788E-09  0.0000000E+00  1.3338641E-09  1.1087671E-01 
       105     -1.2081711E-02  8.8917230E-01 -3.3794506E-09  0.0000000E+00  1.3825212E-10 -3.8562712E-02 
       106     -1.0380206E-02  7.7552641E-01 -2.7989451E-09  0.0000000E+00 -1.1684662E-09 -1.8238607E-01 
       107     -5.7671067E-03  5.2962728E-01 -1.1564235E-09  0.0000000E+00 -1.8095642E-09 -2.9500422E-01 
       108      1.6050658E-03  1.9399804E-01  6.8216480E-10  0.0000000E+00 -1.6335961E-09 -3.5702365E-01 
       109      1.0730819E-02 -1.7424345E-01  2.0266404E-09  0.0000000E+00 -9.5691367E-10 -3.5833973E-01 
       110      1.9978763E-02 -5.1249670E-01  2.5895542E-09  0.0000000E+00 -2.3777746E-10 -2.9891412E-01 
       111      2.7386521E-02 -7.6359754E-01  2.5450773E-09  0.0000000E+00  2.3750153E-10 -1.8895126E-01 
       112      3.1140179E-02 -8.8488719E-01  2.1232618E-09  0.0000000E+00  6.6018436E-10 -4.6104641E-02 
       113      2.9982753E-02 -8.5426871E-01  1.2017733E-09  0.0000000E+00  1.2084176E-09  1.0594824E-01 
       114      2.3631486E-02 -6.7596884E-01 -2.7531957E-10  0.0000000E+00  1.6439859E-09  2.4029660E-01 
       115      1.2925142E-02 -3.8048423E-01 -2.0078488E-09  0.0000000E+00  1.6133120E-09  3.3412506E-01 
       116     -3.6213846E-04 -1.6951528E-02 -3.3878491E-09  0.0000000E+00  9.0415458E-10  3.7300500E-01 
       117     -1.3931705E-02  3.5541562E-01 -3.7046775E-09  0.0000000E+00 -4.6044206E-10  3.5171784E-01 
       118     -2.5486634E-02  6.7732588E-01 -2.4454490E-09  0.0000000E+00 -1.9470944E-09  2.7594014E-01 
       119     -3.3306543E-02  9.0095657E-01  7.2151143E-11  0.0000000E+00 -2.7396636E-09  1.6247653E-01 
       120     -3.6671422E-02  1.0000000E+00  2.8401275E-09  0.0000000E+00 -2.3907593E-09  3.5532356E-02 
       121     -3.6015279E-02  9.7426000E-01  4.7132666E-09  0.0000000E+00 -1.2114225E-09 -7.7955647E-02 
       122     -3.2757580E-02  8.5119602E-01  5.2544081E-09  0.0000000E+00  2.4841661E-11 -1.4892739E-01 
       123     -2.8899557E-02  6.8453204E-01  4.7283893E-09  0.0000000E+00  8.7885205E-10 -1.7132648E-01 
       124     -2.5588823E-02  5.1359036E-01  3.5583903E-09  0.0000000E+00  1.3625416E-09 -1.6360396E-01 
       125     -2.3195969E-02  3.5980491E-01  2.0694437E-09  0.0000000E+00  1.4530645E-09 -1.4112387E-01 
       126     -2.1672526E-02  2.3230387E-01  7.2093233E-10  0.0000000E+00  1.1390364E-09 -1.1297355E-01 
       127     -2.0822030E-02  1.3385446E-01 -1.6344871E-10  0.0000000E+00  5.5790523E-10 -8.4913915E-02 
       128     -2.0417428E-02  6.1803340E-02 -3.8642475E-10  0.0000000E+00 -7.0955057E-11 -6.0937448E-02 
       129     -2.0268424E-02  1.1348235E-02 -6.6051878E-11  0.0000000E+00 -4.3595067E-10 -4.0781921E-02 
       130     -2.0259063E-02 -2.0106868E-02  4.1209355E-10  0.0000000E+00 -3.6986179E-10 -2.2728047E-02 
       131     -2.0311325E-02 -3.4443566E-02  6.3060545E-10  0.0000000E+00 -4.7950432E-11 -6.7003922E-03 
       132     -2.0374046E-02 -3.3952492E-02  5.0904521E-10  0.0000000E+00  2.6912434E-10  6.6580184E-03 
       133     -2.0418932E-02 -2.1720142E-02  1.2558518E-10  0.0000000E+00  3.9084073E-10  1.6471192E-02 
       134     -2.0436940E-02 -1.7435149E-03 -2.3446239E-10  0.0000000E+00  2.9217357E-10  2.1902666E-02 
       135     -2.0433329E-02  2.1285709E-02 -4.6301587E-10  0.0000000E+00  2.1421738E-10  2.2560559E-02 
       136     -2.0420500E-02  4.2625985E-02 -6.7682271E-10  0.0000000E+00  2.0911108E-10  1.8732109E-02 
       137     -2.0411199E-02  5.8181240E-02 -8.3447676E-10  0.0000000E+00 -6.9411491E-11  1.1510400E-02 
       138     -2.0412633E-02  6.5395843E-02 -4.7712470E-10  0.0000000E+00 -6.9979367E-10  2.7936004E-03 
       139     -2.0424180E-02  6.3911260E-02  5.4689059E-10  0.0000000E+00 -1.2209104E-09 -5.0658581E-03 
       140     -2.0438838E-02  5.5771357E-02  1.8716168E-09  0.0000000E+00 -1.1972678E-09 -9.8907329E-03 
       141     -2.0455538E-02  4.4667690E-02  2.8479720E-09  0.0000000E+00 -6.2251531E-10 -1.1500865E-02 
       142     -2.0469781E-02  3.3110396E-02  3.0654301E-09  0.0000000E+00  2.5590971E-10 -1.1078330E-02 
       143     -2.0479993E-02  2.2709360E-02  2.3359640E-09  0.0000000E+00  1.1313911E-09 -9.4760704E-03 
       144     -2.0486470E-02  1.4232750E-02  8.7089255E-10  0.0000000E+00  1.6099469E-09 -7.4347038E-03 
       145     -2.0490210E-02  7.8341433E-03 -8.0600049E-10  0.0000000E+00  1.6314899E-09 -5.4337404E-03 
       146     -2.0492228E-02  3.3221535E-03 -2.3467731E-09  0.0000000E+00  1.3797461E-09 -3.6951538E-03 
       147     -2.0493283E-02  3.8938786E-04 -3.5244089E-09  0.0000000E+00  8.8469549E-10 -2.2855190E-03 
       148     -2.0493857E-02 -1.3051395E-03 -4.0821544E-09  0.0000000E+00  1.9211147E-10 -1.2145987E-03 
       149     -2.0494214E-02 -2.0924300E-03 -3.9181675E-09  0.0000000E+00 -4.4351484E-10 -4.5981257E-04 
       150     -2.0494472E-02 -2.2706695E-03 -3.2435532E-09  0.0000000E+00 -7.9202789E-10  1.9637348E-05 
       151     -2.0494671E-02 -2.0894768E-03 -2.3930225E-09  0.0000000E+00 -7.9362279E-10  2.8152128E-04 
       152     -2.0494808E-02 -1.7332612E-03 -1.6920581E-09  0.0000000E+00 -5.9066577E-10  3.9005790E-04 
       153     -2.0494873E-02 -1.3257740E-03 -1.1816479E-09  0.0000000E+00 -5.6243034E-10  4.0056785E-04 
       154     -2.0494856E-02 -9.4130732E-04 -5.0864972E-10  0.0000000E+00 -8.7160046E-10  3.5637650E-04 
       155     -2.0494752E-02 -6.1694450E-04  5.6377236E-10  0.0000000E+00 -1.1981239E-09  2.8895001E-04 
       156     -2.0494561E-02 -3.6397430E-04  1.8434883E-09  0.0000000E+00 -1.2685619E-09  2.1834453E-04 
       157     -2.0494283E-02 -1.7921992E-04  3.0445594E-09  0.0000000E+00 -1.0075834E-09  1.5410663E-04 
       158     -2.0493920E-02 -5.4075097E-05  3.8154251E-09  0.0000000E+00 -4.9213799E-10  1.0008422E-04 
       159     -2.0493475E-02  2.2923219E-05  4.0182894E-09  0.0000000E+00  8.8639083E-11  5.7966297E-05 
       160     -2.0492949E-02  6.3802646E-05  3.6533009E-09  0.0000000E+00  5.7781174E-10  2.7544105E-05 
       161     -2.0492342E-02  7.9722307E-05  2.9026638E-09  0.0000000E+00  8.3055946E-10  7.3913692E-06 
       162     -2.0491656E-02  7.9931601E-05  2.0329896E-09  0.0000000E+00  8.4419067E-10 -4.6915395E-06 
       163     -2.0490890E-02  7.1308448E-05  1.2308492E-09  0.0000000E+00  7.5674985E-10 -1.0972046E-05 
       164     -2.0490045E-02  5.8628254E-05  5.3214114E-10  0.0000000E+00  5.9401187E-10 -1.3422535E-05 
       165     -2.0489121E-02  4.4868848E-05  5.9270025E-11  0.0000000E+00  3.3805517E-10 -1.3454213E-05 
       166     -2.0488118E-02  3.1979625E-05 -1.5230281E-10  0.0000000E+00  1.3551971E-10 -1.1939724E-05 
       167     -2.0487035E-02  2.1114511E-05 -2.5652307E-10  0.0000000E+00  1.9633784E-10 -9.6847529E-06 
       168     -2.0485873E-02  1.2626485E-05 -5.9092179E-10  0.0000000E+00  5.2744932E-10 -7.3390108E-06 
       169     -2.0484632E-02  6.4002474E-06 -1.3202219E-09  0.0000000E+00  9.0990312E-10 -5.2158492E-06 
       170     -2.0483311E-02  2.1384587E-06 -2.3661854E-09  0.0000000E+00  1.0295011E-09 -3.4339901E-06 
       171     -2.0481911E-02 -5.3146985E-07 -3.3033197E-09  0.0000000E+00  7.0564428E-10 -2.0364668E-06 
       172     -2.0480432E-02 -1.9969600E-06 -3.7282302E-09  0.0000000E+00  9.1675489E-11 -1.0147262E-06 
       173     -2.0478874E-02 -2.6154140E-06 -3.4791082E-09  0.0000000E+00 -5.7006493E-10 -3.2012628E-07 
       174     -2.0477236E-02 -2.6802488E-06 -2.6068683E-09  0.0000000E+00 -1.1231508E-09  1.1647886E-07 
       175     -2.0475519E-02 -2.4155800E-06 -1.2716016E-09  0.0000000E+00 -1.4478007E-09  3.5479355E-07 
       176     -2.0473723E-02 -1.9949418E-06  2.3847362E-10  0.0000000E+00 -1.4778247E-09  4.4796236E-07 
       177     -2.0471848E-02 -1.5348079E-06  1.6499240E-09  0.0000000E+00 -1.3027905E-09  4.5071930E-07 
       178     -2.0469893E-02 -1.1022404E-06  2.8089647E-09  0.0000000E+00 -9.2033102E-10  4.0150010E-07 
       179     -2.0467859E-02 -7.3601720E-07  3.4544993E-09  0.0000000E+00 -3.2281477E-10  3.2739114E-07 
       180     -2.0465746E-02 -4.4805238E-07  3.4138028E-09  0.0000000E+00  5.2000657E-10  2.4997522E-07 
       181     -2.0463554E-02 -2.3491859E-07  2.3738119E-09  0.0000000E+00  1.5973800E-09  1.7961645E-07 
       182     -2.0461282E-02 -8.7014199E-08  2.5373592E-10  0.0000000E+00  2.4717888E-09  1.2020842E-07 
       183     -2.0458932E-02  7.5212198E-09 -2.4769065E-09  0.0000000E+00  2.8046917E-09  7.3014348E-08 
       184     -2.0456502E-02  6.1002719E-08 -5.2768774E-09  0.0000000E+00  2.6688460E-09  3.7788013E-08 
       185     -2.0453993E-02  8.4896224E-08 -7.7435262E-09  0.0000000E+00  2.1100941E-09  1.3357916E-08 
       186     -2.0451405E-02  8.9194616E-08 -9.4164334E-09  0.0000000E+00  1.0771106E-09 -2.2345379E-09 
       187     -2.0448738E-02  8.1509258E-08 -9.8341535E-09  0.0000000E+00 -3.2953887E-10 -1.1347307E-08 
       188     -2.0445991E-02  6.7306319E-08 -8.7743020E-09  0.0000000E+00 -1.6363919E-09 -1.5639927E-08 
       189     -2.0443166E-02  5.0852195E-08 -6.6650869E-09  0.0000000E+00 -2.3321837E-09 -1.6215386E-08 
       190     -2.0440261E-02  3.5304144E-08 -4.2305211E-09  0.0000000E+00 -2.3134661E-09 -1.4241375E-08 
       191     -2.0437277E-02  2.2577769E-08 -2.1340093E-09  0.0000000E+00 -1.7311602E-09 -1.1038914E-08 
       192     -2.0434215E-02  1.3241374E-08 -8.0255623E-10  0.0000000E+00 -9.4890791E-10 -7.7706883E-09 
       193     -2.0431073E-02  6.9072185E-09 -1.9564893E-10  0.0000000E+00 -4.0122003E-10 -5.2877024E-09 
       194     -2.0427852E-02  2.5024967E-09  5.3287218E-11  0.0000000E+00 -1.7028297E-10 -3.7778685E-09 
       195     -2.0424552E-02 -7.2707192E-10  1.8124481E-10  0.0000000E+00 -1.5690661E-10 -2.7416332E-09 
       196     -2.0421173E-02 -2.9701758E-09  3.8178600E-10  0.0000000E+00 -2.2983629E-10 -1.6543843E-09 
       197     -2.0417715E-02 -4.0074191E-09  6.2466325E-10  0.0000000E+00 -2.1035989E-10 -4.0913825E-10 
       198     -2.0414177E-02 -3.8182025E-09  7.8567145E-10  0.0000000E+00 -8.9893447E-11  6.5983456E-10 
       199     -2.0410561E-02 -2.7635532E-09  7.8660491E-10  0.0000000E+00  1.3609133E-10  1.2800726E-09 
       200     -2.0406866E-02 -1.3442642E-09  5.0548712E-10  0.0000000E+00  4.0609724E-10  1.3971276E-09 
       201     -2.0403092E-02  0.0000000E+00  0.0000000E+00  0.0000000E+00  5.2598729E-10  1.3318941E-09 

 MAXIMUM         3.2340E-02   1.000      1.2124E-08   0.000      2.8047E-09  0.3730    
 AT NODE                90         120          36           1         183         116

 MINIMUM        -3.6671E-02 -0.9531     -9.8342E-09   0.000     -3.2026E-09 -0.3583    
 AT NODE               120          82         187           1          33         109


          THE ANALYSIS HAS BEEN COMPLETED



                              ANALYSIS COMPLETE
                              WITH      5 WARNING MESSAGES ON THE DAT FILE



     JOB TIME SUMMARY
       USER TIME (SEC)      =   3.5000    
       SYSTEM TIME (SEC)    =   1.0000    
       TOTAL CPU TIME (SEC) =   4.5000    
       WALLCLOCK TIME (SEC) =          4
