*INCLUDE, INPUT=in_place_nodes.dat
*ELEMENT, ELSET=PIPE, TYPE=PIPE31H
1, 1, 2
*ELGEN, ELSET=PIPE
1, 400, 1, 1
*BEAM SECTION,SECT=PIPE,ELSET=PIPE,MATERIAL=STEEL
0.1683, 0.0127
*MATERIAL, NAME=STEEL
*ELASTIC
2.070e+11, 0.3
*DENSITY
9.142e+03
*ELEMENT, TYPE=SPRING1, ELSET=SPR_AX
401, 1
*ELEMENT, TYPE=SPRING1, ELSET=SPR_VERT
733, 1
*ELEMENT, TYPE=SPRING1, ELSET=SPR_LAT
1065, 1
*ELEMENT, TYPE=SPRING1, ELSET=SPR_AX
402, 2
*ELEMENT, TYPE=SPRING1, ELSET=SPR_VERT
734, 2
*ELEMENT, TYPE=SPRING1, ELSET=SPR_LAT
1066, 2
*ELEMENT, TYPE=SPRING1, ELSET=SPR_AX
403, 3
*ELEMENT, TYPE=SPRING1, ELSET=SPR_VERT
735, 3
*ELEMENT, TYPE=SPRING1, ELSET=SPR_LAT
1067, 3
*ELEMENT, TYPE=SPRING1, ELSET=SPR_AX
404, 4
*ELEMENT, TYPE=SPRING1, ELSET=SPR_VERT
736, 4
*ELEMENT, TYPE=SPRING1, ELSET=SPR_LAT
1068, 4
*ELEMENT, TYPE=SPRING1, ELSET=SPR_AX
405, 5
*ELEMENT, TYPE=SPRING1, ELSET=SPR_VERT
737, 5
*ELEMENT, TYPE=SPRING1, ELSET=SPR_LAT
1069, 5
*ELEMENT, TYPE=SPRING1, ELSET=SPR_AX
406, 6
*ELEMENT, TYPE=SPRING1, ELSET=SPR_VERT
738, 6
*ELEMENT, TYPE=SPRING1, ELSET=SPR_LAT
1070, 6
*ELEMENT, TYPE=SPRING1, ELSET=SPR_AX
407, 7
*ELEMENT, TYPE=SPRING1, ELSET=SPR_VERT
739, 7
*ELEMENT, TYPE=SPRING1, ELSET=SPR_LAT
1071, 7
*ELEMENT, TYPE=SPRING1, ELSET=SPR_AX
408, 8
*ELEMENT, TYPE=SPRING1, ELSET=SPR_VERT
740, 8
*ELEMENT, TYPE=SPRING1, ELSET=SPR_LAT
1072, 8
*ELEMENT, TYPE=SPRING1, ELSET=SPR_AX
409, 9
*ELEMENT, TYPE=SPRING1, ELSET=SPR_VERT
741, 9
*ELEMENT, TYPE=SPRING1, ELSET=SPR_LAT
1073, 9
*ELEMENT, TYPE=SPRING1, ELSET=SPR_AX
410, 10
*ELEMENT, TYPE=SPRING1, ELSET=SPR_VERT
742, 10
*ELEMENT, TYPE=SPRING1, ELSET=SPR_LAT
1074, 10
*ELEMENT, TYPE=SPRING1, ELSET=SPR_AX
411, 11
*ELEMENT, TYPE=SPRING1, ELSET=SPR_VERT
743, 11
*ELEMENT, TYPE=SPRING1, ELSET=SPR_LAT
1075, 11
*ELEMENT, TYPE=SPRING1, ELSET=SPR_AX
412, 12
*ELEMENT, TYPE=SPRING1, ELSET=SPR_VERT
744, 12
*ELEMENT, TYPE=SPRING1, ELSET=SPR_LAT
1076, 12
*ELEMENT, TYPE=SPRING1, ELSET=SPR_AX
413, 13
*ELEMENT, TYPE=SPRING1, ELSET=SPR_VERT
745, 13
*ELEMENT, TYPE=SPRING1, ELSET=SPR_LAT
1077, 13
*ELEMENT, TYPE=SPRING1, ELSET=SPR_AX
414, 14
*ELEMENT, TYPE=SPRING1, ELSET=SPR_VERT
746, 14
*ELEMENT, TYPE=SPRING1, ELSET=SPR_LAT
1078, 14
*ELEMENT, TYPE=SPRING1, ELSET=SPR_AX
415, 15
*ELEMENT, TYPE=SPRING1, ELSET=SPR_VERT
747, 15
*ELEMENT, TYPE=SPRING1, ELSET=SPR_LAT
1079, 15
*ELEMENT, TYPE=SPRING1, ELSET=SPR_AX
416, 16
*ELEMENT, TYPE=SPRING1, ELSET=SPR_VERT
748, 16
*ELEMENT, TYPE=SPRING1, ELSET=SPR_LAT
1080, 16
*ELEMENT, TYPE=SPRING1, ELSET=SPR_AX
417, 17
*ELEMENT, TYPE=SPRING1, ELSET=SPR_VERT
749, 17
*ELEMENT, TYPE=SPRING1, ELSET=SPR_LAT
1081, 17
*ELEMENT, TYPE=SPRING1, ELSET=SPR_AX
418, 18
*ELEMENT, TYPE=SPRING1, ELSET=SPR_VERT
750, 18
*ELEMENT, TYPE=SPRING1, ELSET=SPR_LAT
1082, 18
*ELEMENT, TYPE=SPRING1, ELSET=SPR_AX
419, 19
*ELEMENT, TYPE=SPRING1, ELSET=SPR_VERT
751, 19
*ELEMENT, TYPE=SPRING1, ELSET=SPR_LAT
1083, 19
*ELEMENT, TYPE=SPRING1, ELSET=SPR_AX
420, 20
*ELEMENT, TYPE=SPRING1, ELSET=SPR_VERT
752, 20
*ELEMENT, TYPE=SPRING1, ELSET=SPR_LAT
1084, 20
*ELEMENT, TYPE=SPRING1, ELSET=SPR_AX
421, 21
*ELEMENT, TYPE=SPRING1, ELSET=SPR_VERT
753, 21
*ELEMENT, TYPE=SPRING1, ELSET=SPR_LAT
1085, 21
*ELEMENT, TYPE=SPRING1, ELSET=SPR_AX
422, 22
*ELEMENT, TYPE=SPRING1, ELSET=SPR_VERT
754, 22
*ELEMENT, TYPE=SPRING1, ELSET=SPR_LAT
1086, 22
*ELEMENT, TYPE=SPRING1, ELSET=SPR_AX
423, 23
*ELEMENT, TYPE=SPRING1, ELSET=SPR_VERT
755, 23
*ELEMENT, TYPE=SPRING1, ELSET=SPR_LAT
1087, 23
*ELEMENT, TYPE=SPRING1, ELSET=SPR_AX
424, 24
*ELEMENT, TYPE=SPRING1, ELSET=SPR_VERT
756, 24
*ELEMENT, TYPE=SPRING1, ELSET=SPR_LAT
1088, 24
*ELEMENT, TYPE=SPRING1, ELSET=SPR_AX
425, 25
*ELEMENT, TYPE=SPRING1, ELSET=SPR_VERT
757, 25
*ELEMENT, TYPE=SPRING1, ELSET=SPR_LAT
1089, 25
*ELEMENT, TYPE=SPRING1, ELSET=SPR_AX
426, 26
*ELEMENT, TYPE=SPRING1, ELSET=SPR_VERT
758, 26
*ELEMENT, TYPE=SPRING1, ELSET=SPR_LAT
1090, 26
*ELEMENT, TYPE=SPRING1, ELSET=SPR_AX
427, 27
*ELEMENT, TYPE=SPRING1, ELSET=SPR_VERT
759, 27
*ELEMENT, TYPE=SPRING1, ELSET=SPR_LAT
1091, 27
*ELEMENT, TYPE=SPRING1, ELSET=SPR_AX
428, 28
*ELEMENT, TYPE=SPRING1, ELSET=SPR_VERT
760, 28
*ELEMENT, TYPE=SPRING1, ELSET=SPR_LAT
1092, 28
*ELEMENT, TYPE=SPRING1, ELSET=SPR_AX
429, 29
*ELEMENT, TYPE=SPRING1, ELSET=SPR_VERT
761, 29
*ELEMENT, TYPE=SPRING1, ELSET=SPR_LAT
1093, 29
*ELEMENT, TYPE=SPRING1, ELSET=SPR_AX
430, 30
*ELEMENT, TYPE=SPRING1, ELSET=SPR_VERT
762, 30
*ELEMENT, TYPE=SPRING1, ELSET=SPR_LAT
1094, 30
*ELEMENT, TYPE=SPRING1, ELSET=SPR_AX
431, 31
*ELEMENT, TYPE=SPRING1, ELSET=SPR_VERT
763, 31
*ELEMENT, TYPE=SPRING1, ELSET=SPR_LAT
1095, 31
*ELEMENT, TYPE=SPRING1, ELSET=SPR_AX
432, 32
*ELEMENT, TYPE=SPRING1, ELSET=SPR_VERT
764, 32
*ELEMENT, TYPE=SPRING1, ELSET=SPR_LAT
1096, 32
*ELEMENT, TYPE=SPRING1, ELSET=SPR_AX
433, 33
*ELEMENT, TYPE=SPRING1, ELSET=SPR_VERT
765, 33
*ELEMENT, TYPE=SPRING1, ELSET=SPR_LAT
1097, 33
*ELEMENT, TYPE=SPRING1, ELSET=SPR_AX
434, 34
*ELEMENT, TYPE=SPRING1, ELSET=SPR_VERT
766, 34
*ELEMENT, TYPE=SPRING1, ELSET=SPR_LAT
1098, 34
*ELEMENT, TYPE=SPRING1, ELSET=SPR_AX
435, 35
*ELEMENT, TYPE=SPRING1, ELSET=SPR_VERT
767, 35
*ELEMENT, TYPE=SPRING1, ELSET=SPR_LAT
1099, 35
*ELEMENT, TYPE=SPRING1, ELSET=SPR_AX
436, 36
*ELEMENT, TYPE=SPRING1, ELSET=SPR_VERT
768, 36
*ELEMENT, TYPE=SPRING1, ELSET=SPR_LAT
1100, 36
*ELEMENT, TYPE=SPRING1, ELSET=SPR_AX
437, 37
*ELEMENT, TYPE=SPRING1, ELSET=SPR_VERT
769, 37
*ELEMENT, TYPE=SPRING1, ELSET=SPR_LAT
1101, 37
*ELEMENT, TYPE=SPRING1, ELSET=SPR_AX
438, 38
*ELEMENT, TYPE=SPRING1, ELSET=SPR_VERT
770, 38
*ELEMENT, TYPE=SPRING1, ELSET=SPR_LAT
1102, 38
*ELEMENT, TYPE=SPRING1, ELSET=SPR_AX
439, 39
*ELEMENT, TYPE=SPRING1, ELSET=SPR_VERT
771, 39
*ELEMENT, TYPE=SPRING1, ELSET=SPR_LAT
1103, 39
*ELEMENT, TYPE=SPRING1, ELSET=SPR_AX
440, 40
*ELEMENT, TYPE=SPRING1, ELSET=SPR_VERT
772, 40
*ELEMENT, TYPE=SPRING1, ELSET=SPR_LAT
1104, 40
*ELEMENT, TYPE=SPRING1, ELSET=SPR_AX
441, 41
*ELEMENT, TYPE=SPRING1, ELSET=SPR_VERT
773, 41
*ELEMENT, TYPE=SPRING1, ELSET=SPR_LAT
1105, 41
*ELEMENT, TYPE=SPRING1, ELSET=SPR_AX
442, 42
*ELEMENT, TYPE=SPRING1, ELSET=SPR_VERT
774, 42
*ELEMENT, TYPE=SPRING1, ELSET=SPR_LAT
1106, 42
*ELEMENT, TYPE=SPRING1, ELSET=SPR_AX
443, 43
*ELEMENT, TYPE=SPRING1, ELSET=SPR_VERT
775, 43
*ELEMENT, TYPE=SPRING1, ELSET=SPR_LAT
1107, 43
*ELEMENT, TYPE=SPRING1, ELSET=SPR_AX
444, 44
*ELEMENT, TYPE=SPRING1, ELSET=SPR_VERT
776, 44
*ELEMENT, TYPE=SPRING1, ELSET=SPR_LAT
1108, 44
*ELEMENT, TYPE=SPRING1, ELSET=SPR_AX
445, 45
*ELEMENT, TYPE=SPRING1, ELSET=SPR_VERT
777, 45
*ELEMENT, TYPE=SPRING1, ELSET=SPR_LAT
1109, 45
*ELEMENT, TYPE=SPRING1, ELSET=SPR_AX
446, 46
*ELEMENT, TYPE=SPRING1, ELSET=SPR_VERT
778, 46
*ELEMENT, TYPE=SPRING1, ELSET=SPR_LAT
1110, 46
*ELEMENT, TYPE=SPRING1, ELSET=SPR_AX
447, 47
*ELEMENT, TYPE=SPRING1, ELSET=SPR_VERT
779, 47
*ELEMENT, TYPE=SPRING1, ELSET=SPR_LAT
1111, 47
*ELEMENT, TYPE=SPRING1, ELSET=SPR_AX
448, 48
*ELEMENT, TYPE=SPRING1, ELSET=SPR_VERT
780, 48
*ELEMENT, TYPE=SPRING1, ELSET=SPR_LAT
1112, 48
*ELEMENT, TYPE=SPRING1, ELSET=SPR_AX
449, 49
*ELEMENT, TYPE=SPRING1, ELSET=SPR_VERT
781, 49
*ELEMENT, TYPE=SPRING1, ELSET=SPR_LAT
1113, 49
*ELEMENT, TYPE=SPRING1, ELSET=SPR_AX
450, 50
*ELEMENT, TYPE=SPRING1, ELSET=SPR_VERT
782, 50
*ELEMENT, TYPE=SPRING1, ELSET=SPR_LAT
1114, 50
*ELEMENT, TYPE=SPRING1, ELSET=SPR_AX
451, 51
*ELEMENT, TYPE=SPRING1, ELSET=SPR_VERT
783, 51
*ELEMENT, TYPE=SPRING1, ELSET=SPR_LAT
1115, 51
*ELEMENT, TYPE=SPRING1, ELSET=SPR_AX
452, 52
*ELEMENT, TYPE=SPRING1, ELSET=SPR_VERT
784, 52
*ELEMENT, TYPE=SPRING1, ELSET=SPR_LAT
1116, 52
*ELEMENT, TYPE=SPRING1, ELSET=SPR_AX
453, 53
*ELEMENT, TYPE=SPRING1, ELSET=SPR_VERT
785, 53
*ELEMENT, TYPE=SPRING1, ELSET=SPR_LAT
1117, 53
*ELEMENT, TYPE=SPRING1, ELSET=SPR_AX
454, 54
*ELEMENT, TYPE=SPRING1, ELSET=SPR_VERT
786, 54
*ELEMENT, TYPE=SPRING1, ELSET=SPR_LAT
1118, 54
*ELEMENT, TYPE=SPRING1, ELSET=SPR_AX
455, 55
*ELEMENT, TYPE=SPRING1, ELSET=SPR_VERT
787, 55
*ELEMENT, TYPE=SPRING1, ELSET=SPR_LAT
1119, 55
*ELEMENT, TYPE=SPRING1, ELSET=SPR_AX
456, 56
*ELEMENT, TYPE=SPRING1, ELSET=SPR_VERT
788, 56
*ELEMENT, TYPE=SPRING1, ELSET=SPR_LAT
1120, 56
*ELEMENT, TYPE=SPRING1, ELSET=SPR_AX
457, 57
*ELEMENT, TYPE=SPRING1, ELSET=SPR_VERT
789, 57
*ELEMENT, TYPE=SPRING1, ELSET=SPR_LAT
1121, 57
*ELEMENT, TYPE=SPRING1, ELSET=SPR_AX
458, 58
*ELEMENT, TYPE=SPRING1, ELSET=SPR_VERT
790, 58
*ELEMENT, TYPE=SPRING1, ELSET=SPR_LAT
1122, 58
*ELEMENT, TYPE=SPRING1, ELSET=SPR_AX
459, 59
*ELEMENT, TYPE=SPRING1, ELSET=SPR_VERT
791, 59
*ELEMENT, TYPE=SPRING1, ELSET=SPR_LAT
1123, 59
*ELEMENT, TYPE=SPRING1, ELSET=SPR_AX
460, 60
*ELEMENT, TYPE=SPRING1, ELSET=SPR_VERT
792, 60
*ELEMENT, TYPE=SPRING1, ELSET=SPR_LAT
1124, 60
*ELEMENT, TYPE=SPRING1, ELSET=SPR_AX
461, 61
*ELEMENT, TYPE=SPRING1, ELSET=SPR_VERT
793, 61
*ELEMENT, TYPE=SPRING1, ELSET=SPR_LAT
1125, 61
*ELEMENT, TYPE=SPRING1, ELSET=SPR_AX
462, 62
*ELEMENT, TYPE=SPRING1, ELSET=SPR_VERT
794, 62
*ELEMENT, TYPE=SPRING1, ELSET=SPR_LAT
1126, 62
*ELEMENT, TYPE=SPRING1, ELSET=SPR_AX
463, 63
*ELEMENT, TYPE=SPRING1, ELSET=SPR_VERT
795, 63
*ELEMENT, TYPE=SPRING1, ELSET=SPR_LAT
1127, 63
*ELEMENT, TYPE=SPRING1, ELSET=SPR_AX
464, 64
*ELEMENT, TYPE=SPRING1, ELSET=SPR_VERT
796, 64
*ELEMENT, TYPE=SPRING1, ELSET=SPR_LAT
1128, 64
*ELEMENT, TYPE=SPRING1, ELSET=SPR_AX
465, 65
*ELEMENT, TYPE=SPRING1, ELSET=SPR_VERT
797, 65
*ELEMENT, TYPE=SPRING1, ELSET=SPR_LAT
1129, 65
*ELEMENT, TYPE=SPRING1, ELSET=SPR_AX
466, 66
*ELEMENT, TYPE=SPRING1, ELSET=SPR_VERT
798, 66
*ELEMENT, TYPE=SPRING1, ELSET=SPR_LAT
1130, 66
*ELEMENT, TYPE=SPRING1, ELSET=SPR_AX
467, 67
*ELEMENT, TYPE=SPRING1, ELSET=SPR_VERT
799, 67
*ELEMENT, TYPE=SPRING1, ELSET=SPR_LAT
1131, 67
*ELEMENT, TYPE=SPRING1, ELSET=SPR_AX
468, 68
*ELEMENT, TYPE=SPRING1, ELSET=SPR_VERT
800, 68
*ELEMENT, TYPE=SPRING1, ELSET=SPR_LAT
1132, 68
*ELEMENT, TYPE=SPRING1, ELSET=SPR_AX
469, 69
*ELEMENT, TYPE=SPRING1, ELSET=SPR_VERT
801, 69
*ELEMENT, TYPE=SPRING1, ELSET=SPR_LAT
1133, 69
*ELEMENT, TYPE=SPRING1, ELSET=SPR_AX
470, 70
*ELEMENT, TYPE=SPRING1, ELSET=SPR_VERT
802, 70
*ELEMENT, TYPE=SPRING1, ELSET=SPR_LAT
1134, 70
*ELEMENT, TYPE=SPRING1, ELSET=SPR_AX
471, 71
*ELEMENT, TYPE=SPRING1, ELSET=SPR_VERT
803, 71
*ELEMENT, TYPE=SPRING1, ELSET=SPR_LAT
1135, 71
*ELEMENT, TYPE=SPRING1, ELSET=SPR_AX
472, 72
*ELEMENT, TYPE=SPRING1, ELSET=SPR_VERT
804, 72
*ELEMENT, TYPE=SPRING1, ELSET=SPR_LAT
1136, 72
*ELEMENT, TYPE=SPRING1, ELSET=SPR_AX
473, 73
*ELEMENT, TYPE=SPRING1, ELSET=SPR_VERT
805, 73
*ELEMENT, TYPE=SPRING1, ELSET=SPR_LAT
1137, 73
*ELEMENT, TYPE=SPRING1, ELSET=SPR_AX
474, 74
*ELEMENT, TYPE=SPRING1, ELSET=SPR_VERT
806, 74
*ELEMENT, TYPE=SPRING1, ELSET=SPR_LAT
1138, 74
*ELEMENT, TYPE=SPRING1, ELSET=SPR_AX
475, 75
*ELEMENT, TYPE=SPRING1, ELSET=SPR_VERT
807, 75
*ELEMENT, TYPE=SPRING1, ELSET=SPR_LAT
1139, 75
*ELEMENT, TYPE=SPRING1, ELSET=SPR_AX
476, 76
*ELEMENT, TYPE=SPRING1, ELSET=SPR_VERT
808, 76
*ELEMENT, TYPE=SPRING1, ELSET=SPR_LAT
1140, 76
*ELEMENT, TYPE=SPRING1, ELSET=SPR_AX
477, 77
*ELEMENT, TYPE=SPRING1, ELSET=SPR_VERT
809, 77
*ELEMENT, TYPE=SPRING1, ELSET=SPR_LAT
1141, 77
*ELEMENT, TYPE=SPRING1, ELSET=SPR_AX
478, 78
*ELEMENT, TYPE=SPRING1, ELSET=SPR_VERT
810, 78
*ELEMENT, TYPE=SPRING1, ELSET=SPR_LAT
1142, 78
*ELEMENT, TYPE=SPRING1, ELSET=SPR_AX
479, 79
*ELEMENT, TYPE=SPRING1, ELSET=SPR_VERT
811, 79
*ELEMENT, TYPE=SPRING1, ELSET=SPR_LAT
1143, 79
*ELEMENT, TYPE=SPRING1, ELSET=SPR_AX
480, 80
*ELEMENT, TYPE=SPRING1, ELSET=SPR_VERT
812, 80
*ELEMENT, TYPE=SPRING1, ELSET=SPR_LAT
1144, 80
*ELEMENT, TYPE=SPRING1, ELSET=SPR_AX
481, 81
*ELEMENT, TYPE=SPRING1, ELSET=SPR_VERT
813, 81
*ELEMENT, TYPE=SPRING1, ELSET=SPR_LAT
1145, 81
*ELEMENT, TYPE=SPRING1, ELSET=SPR_AX
482, 82
*ELEMENT, TYPE=SPRING1, ELSET=SPR_VERT
814, 82
*ELEMENT, TYPE=SPRING1, ELSET=SPR_LAT
1146, 82
*ELEMENT, TYPE=SPRING1, ELSET=SPR_AX
483, 83
*ELEMENT, TYPE=SPRING1, ELSET=SPR_VERT
815, 83
*ELEMENT, TYPE=SPRING1, ELSET=SPR_LAT
1147, 83
*ELEMENT, TYPE=SPRING1, ELSET=SPR_AX
484, 84
*ELEMENT, TYPE=SPRING1, ELSET=SPR_VERT
816, 84
*ELEMENT, TYPE=SPRING1, ELSET=SPR_LAT
1148, 84
*ELEMENT, TYPE=SPRING1, ELSET=SPR_AX
485, 85
*ELEMENT, TYPE=SPRING1, ELSET=SPR_VERT
817, 85
*ELEMENT, TYPE=SPRING1, ELSET=SPR_LAT
1149, 85
*ELEMENT, TYPE=SPRING1, ELSET=SPR_AX
486, 86
*ELEMENT, TYPE=SPRING1, ELSET=SPR_VERT
818, 86
*ELEMENT, TYPE=SPRING1, ELSET=SPR_LAT
1150, 86
*ELEMENT, TYPE=SPRING1, ELSET=SPR_AX
487, 87
*ELEMENT, TYPE=SPRING1, ELSET=SPR_VERT
819, 87
*ELEMENT, TYPE=SPRING1, ELSET=SPR_LAT
1151, 87
*ELEMENT, TYPE=SPRING1, ELSET=SPR_AX
488, 88
*ELEMENT, TYPE=SPRING1, ELSET=SPR_VERT
820, 88
*ELEMENT, TYPE=SPRING1, ELSET=SPR_LAT
1152, 88
*ELEMENT, TYPE=SPRING1, ELSET=SPR_AX
489, 89
*ELEMENT, TYPE=SPRING1, ELSET=SPR_VERT
821, 89
*ELEMENT, TYPE=SPRING1, ELSET=SPR_LAT
1153, 89
*ELEMENT, TYPE=SPRING1, ELSET=SPR_AX
490, 90
*ELEMENT, TYPE=SPRING1, ELSET=SPR_VERT
822, 90
*ELEMENT, TYPE=SPRING1, ELSET=SPR_LAT
1154, 90
*ELEMENT, TYPE=SPRING1, ELSET=SPR_AX
491, 91
*ELEMENT, TYPE=SPRING1, ELSET=SPR_VERT
823, 91
*ELEMENT, TYPE=SPRING1, ELSET=SPR_LAT
1155, 91
*ELEMENT, TYPE=SPRING1, ELSET=SPR_AX
492, 92
*ELEMENT, TYPE=SPRING1, ELSET=SPR_VERT
824, 92
*ELEMENT, TYPE=SPRING1, ELSET=SPR_LAT
1156, 92
*ELEMENT, TYPE=SPRING1, ELSET=SPR_AX
493, 93
*ELEMENT, TYPE=SPRING1, ELSET=SPR_VERT
825, 93
*ELEMENT, TYPE=SPRING1, ELSET=SPR_LAT
1157, 93
*ELEMENT, TYPE=SPRING1, ELSET=SPR_AX
494, 94
*ELEMENT, TYPE=SPRING1, ELSET=SPR_VERT
826, 94
*ELEMENT, TYPE=SPRING1, ELSET=SPR_LAT
1158, 94
*ELEMENT, TYPE=SPRING1, ELSET=SPR_AX
495, 95
*ELEMENT, TYPE=SPRING1, ELSET=SPR_VERT
827, 95
*ELEMENT, TYPE=SPRING1, ELSET=SPR_LAT
1159, 95
*ELEMENT, TYPE=SPRING1, ELSET=SPR_AX
496, 96
*ELEMENT, TYPE=SPRING1, ELSET=SPR_VERT
828, 96
*ELEMENT, TYPE=SPRING1, ELSET=SPR_LAT
1160, 96
*ELEMENT, TYPE=SPRING1, ELSET=SPR_AX
497, 97
*ELEMENT, TYPE=SPRING1, ELSET=SPR_VERT
829, 97
*ELEMENT, TYPE=SPRING1, ELSET=SPR_LAT
1161, 97
*ELEMENT, TYPE=SPRING1, ELSET=SPR_AX
498, 98
*ELEMENT, TYPE=SPRING1, ELSET=SPR_VERT
830, 98
*ELEMENT, TYPE=SPRING1, ELSET=SPR_LAT
1162, 98
*ELEMENT, TYPE=SPRING1, ELSET=SPR_AX
499, 99
*ELEMENT, TYPE=SPRING1, ELSET=SPR_VERT
831, 99
*ELEMENT, TYPE=SPRING1, ELSET=SPR_LAT
1163, 99
*ELEMENT, TYPE=SPRING1, ELSET=SPR_AX
500, 100
*ELEMENT, TYPE=SPRING1, ELSET=SPR_VERT
832, 100
*ELEMENT, TYPE=SPRING1, ELSET=SPR_LAT
1164, 100
*ELEMENT, TYPE=SPRING1, ELSET=SPR_AX
501, 101
*ELEMENT, TYPE=SPRING1, ELSET=SPR_VERT
833, 101
*ELEMENT, TYPE=SPRING1, ELSET=SPR_LAT
1165, 101
*ELEMENT, TYPE=SPRING1, ELSET=SPR_AX
502, 102
*ELEMENT, TYPE=SPRING1, ELSET=SPR_VERT
834, 102
*ELEMENT, TYPE=SPRING1, ELSET=SPR_LAT
1166, 102
*ELEMENT, TYPE=SPRING1, ELSET=SPR_AX
503, 103
*ELEMENT, TYPE=SPRING1, ELSET=SPR_VERT
835, 103
*ELEMENT, TYPE=SPRING1, ELSET=SPR_LAT
1167, 103
*ELEMENT, TYPE=SPRING1, ELSET=SPR_AX
504, 104
*ELEMENT, TYPE=SPRING1, ELSET=SPR_VERT
836, 104
*ELEMENT, TYPE=SPRING1, ELSET=SPR_LAT
1168, 104
*ELEMENT, TYPE=SPRING1, ELSET=SPR_AX
505, 105
*ELEMENT, TYPE=SPRING1, ELSET=SPR_VERT
837, 105
*ELEMENT, TYPE=SPRING1, ELSET=SPR_LAT
1169, 105
*ELEMENT, TYPE=SPRING1, ELSET=SPR_AX
506, 106
*ELEMENT, TYPE=SPRING1, ELSET=SPR_VERT
838, 106
*ELEMENT, TYPE=SPRING1, ELSET=SPR_LAT
1170, 106
*ELEMENT, TYPE=SPRING1, ELSET=SPR_AX
507, 107
*ELEMENT, TYPE=SPRING1, ELSET=SPR_VERT
839, 107
*ELEMENT, TYPE=SPRING1, ELSET=SPR_LAT
1171, 107
*ELEMENT, TYPE=SPRING1, ELSET=SPR_AX
508, 108
*ELEMENT, TYPE=SPRING1, ELSET=SPR_VERT
840, 108
*ELEMENT, TYPE=SPRING1, ELSET=SPR_LAT
1172, 108
*ELEMENT, TYPE=SPRING1, ELSET=SPR_AX
509, 109
*ELEMENT, TYPE=SPRING1, ELSET=SPR_VERT
841, 109
*ELEMENT, TYPE=SPRING1, ELSET=SPR_LAT
1173, 109
*ELEMENT, TYPE=SPRING1, ELSET=SPR_AX
510, 110
*ELEMENT, TYPE=SPRING1, ELSET=SPR_VERT
842, 110
*ELEMENT, TYPE=SPRING1, ELSET=SPR_LAT
1174, 110
*ELEMENT, TYPE=SPRING1, ELSET=SPR_AX
511, 111
*ELEMENT, TYPE=SPRING1, ELSET=SPR_VERT
843, 111
*ELEMENT, TYPE=SPRING1, ELSET=SPR_LAT
1175, 111
*ELEMENT, TYPE=SPRING1, ELSET=SPR_AX
512, 112
*ELEMENT, TYPE=SPRING1, ELSET=SPR_VERT
844, 112
*ELEMENT, TYPE=SPRING1, ELSET=SPR_LAT
1176, 112
*ELEMENT, TYPE=SPRING1, ELSET=SPR_AX
513, 113
*ELEMENT, TYPE=SPRING1, ELSET=SPR_VERT
845, 113
*ELEMENT, TYPE=SPRING1, ELSET=SPR_LAT
1177, 113
*ELEMENT, TYPE=SPRING1, ELSET=SPR_AX
514, 114
*ELEMENT, TYPE=SPRING1, ELSET=SPR_VERT
846, 114
*ELEMENT, TYPE=SPRING1, ELSET=SPR_LAT
1178, 114
*ELEMENT, TYPE=SPRING1, ELSET=SPR_AX
515, 115
*ELEMENT, TYPE=SPRING1, ELSET=SPR_VERT
847, 115
*ELEMENT, TYPE=SPRING1, ELSET=SPR_LAT
1179, 115
*ELEMENT, TYPE=SPRING1, ELSET=SPR_AX
516, 116
*ELEMENT, TYPE=SPRING1, ELSET=SPR_VERT
848, 116
*ELEMENT, TYPE=SPRING1, ELSET=SPR_LAT
1180, 116
*ELEMENT, TYPE=SPRING1, ELSET=SPR_AX
517, 117
*ELEMENT, TYPE=SPRING1, ELSET=SPR_VERT
849, 117
*ELEMENT, TYPE=SPRING1, ELSET=SPR_LAT
1181, 117
*ELEMENT, TYPE=SPRING1, ELSET=SPR_AX
518, 118
*ELEMENT, TYPE=SPRING1, ELSET=SPR_VERT
850, 118
*ELEMENT, TYPE=SPRING1, ELSET=SPR_LAT
1182, 118
*ELEMENT, TYPE=SPRING1, ELSET=SPR_AX
519, 119
*ELEMENT, TYPE=SPRING1, ELSET=SPR_VERT
851, 119
*ELEMENT, TYPE=SPRING1, ELSET=SPR_LAT
1183, 119
*ELEMENT, TYPE=SPRING1, ELSET=SPR_AX
520, 120
*ELEMENT, TYPE=SPRING1, ELSET=SPR_VERT
852, 120
*ELEMENT, TYPE=SPRING1, ELSET=SPR_LAT
1184, 120
*ELEMENT, TYPE=SPRING1, ELSET=SPR_AX
521, 121
*ELEMENT, TYPE=SPRING1, ELSET=SPR_VERT
853, 121
*ELEMENT, TYPE=SPRING1, ELSET=SPR_LAT
1185, 121
*ELEMENT, TYPE=SPRING1, ELSET=SPR_AX
522, 122
*ELEMENT, TYPE=SPRING1, ELSET=SPR_VERT
854, 122
*ELEMENT, TYPE=SPRING1, ELSET=SPR_LAT
1186, 122
*ELEMENT, TYPE=SPRING1, ELSET=SPR_AX
523, 123
*ELEMENT, TYPE=SPRING1, ELSET=SPR_VERT
855, 123
*ELEMENT, TYPE=SPRING1, ELSET=SPR_LAT
1187, 123
*ELEMENT, TYPE=SPRING1, ELSET=SPR_AX
524, 124
*ELEMENT, TYPE=SPRING1, ELSET=SPR_VERT
856, 124
*ELEMENT, TYPE=SPRING1, ELSET=SPR_LAT
1188, 124
*ELEMENT, TYPE=SPRING1, ELSET=SPR_AX
525, 125
*ELEMENT, TYPE=SPRING1, ELSET=SPR_VERT
857, 125
*ELEMENT, TYPE=SPRING1, ELSET=SPR_LAT
1189, 125
*ELEMENT, TYPE=SPRING1, ELSET=SPR_AX
526, 126
*ELEMENT, TYPE=SPRING1, ELSET=SPR_VERT
858, 126
*ELEMENT, TYPE=SPRING1, ELSET=SPR_LAT
1190, 126
*ELEMENT, TYPE=SPRING1, ELSET=SPR_AX
527, 127
*ELEMENT, TYPE=SPRING1, ELSET=SPR_VERT
859, 127
*ELEMENT, TYPE=SPRING1, ELSET=SPR_LAT
1191, 127
*ELEMENT, TYPE=SPRING1, ELSET=SPR_AX
528, 128
*ELEMENT, TYPE=SPRING1, ELSET=SPR_VERT
860, 128
*ELEMENT, TYPE=SPRING1, ELSET=SPR_LAT
1192, 128
*ELEMENT, TYPE=SPRING1, ELSET=SPR_AX
529, 129
*ELEMENT, TYPE=SPRING1, ELSET=SPR_VERT
861, 129
*ELEMENT, TYPE=SPRING1, ELSET=SPR_LAT
1193, 129
*ELEMENT, TYPE=SPRING1, ELSET=SPR_AX
530, 130
*ELEMENT, TYPE=SPRING1, ELSET=SPR_VERT
862, 130
*ELEMENT, TYPE=SPRING1, ELSET=SPR_LAT
1194, 130
*ELEMENT, TYPE=SPRING1, ELSET=SPR_AX
531, 131
*ELEMENT, TYPE=SPRING1, ELSET=SPR_VERT
863, 131
*ELEMENT, TYPE=SPRING1, ELSET=SPR_LAT
1195, 131
*ELEMENT, TYPE=SPRING1, ELSET=SPR_AX
532, 132
*ELEMENT, TYPE=SPRING1, ELSET=SPR_VERT
864, 132
*ELEMENT, TYPE=SPRING1, ELSET=SPR_LAT
1196, 132
*ELEMENT, TYPE=SPRING1, ELSET=SPR_AX
533, 133
*ELEMENT, TYPE=SPRING1, ELSET=SPR_VERT
865, 133
*ELEMENT, TYPE=SPRING1, ELSET=SPR_LAT
1197, 133
*ELEMENT, TYPE=SPRING1, ELSET=SPR_AX
534, 134
*ELEMENT, TYPE=SPRING1, ELSET=SPR_VERT
866, 134
*ELEMENT, TYPE=SPRING1, ELSET=SPR_LAT
1198, 134
*ELEMENT, TYPE=SPRING1, ELSET=SPR_AX
535, 135
*ELEMENT, TYPE=SPRING1, ELSET=SPR_VERT
867, 135
*ELEMENT, TYPE=SPRING1, ELSET=SPR_LAT
1199, 135
*ELEMENT, TYPE=SPRING1, ELSET=SPR_AX
536, 136
*ELEMENT, TYPE=SPRING1, ELSET=SPR_VERT
868, 136
*ELEMENT, TYPE=SPRING1, ELSET=SPR_LAT
1200, 136
*ELEMENT, TYPE=SPRING1, ELSET=SPR_AX
537, 137
*ELEMENT, TYPE=SPRING1, ELSET=SPR_VERT
869, 137
*ELEMENT, TYPE=SPRING1, ELSET=SPR_LAT
1201, 137
*ELEMENT, TYPE=SPRING1, ELSET=SPR_AX
538, 138
*ELEMENT, TYPE=SPRING1, ELSET=SPR_VERT
870, 138
*ELEMENT, TYPE=SPRING1, ELSET=SPR_LAT
1202, 138
*ELEMENT, TYPE=SPRING1, ELSET=SPR_AX
539, 139
*ELEMENT, TYPE=SPRING1, ELSET=SPR_VERT
871, 139
*ELEMENT, TYPE=SPRING1, ELSET=SPR_LAT
1203, 139
*ELEMENT, TYPE=SPRING1, ELSET=SPR_AX
540, 140
*ELEMENT, TYPE=SPRING1, ELSET=SPR_VERT
872, 140
*ELEMENT, TYPE=SPRING1, ELSET=SPR_LAT
1204, 140
*ELEMENT, TYPE=SPRING1, ELSET=SPR_AX
541, 141
*ELEMENT, TYPE=SPRING1, ELSET=SPR_VERT
873, 141
*ELEMENT, TYPE=SPRING1, ELSET=SPR_LAT
1205, 141
*ELEMENT, TYPE=SPRING1, ELSET=SPR_AX
542, 142
*ELEMENT, TYPE=SPRING1, ELSET=SPR_VERT
874, 142
*ELEMENT, TYPE=SPRING1, ELSET=SPR_LAT
1206, 142
*ELEMENT, TYPE=SPRING1, ELSET=SPR_AX
543, 143
*ELEMENT, TYPE=SPRING1, ELSET=SPR_VERT
875, 143
*ELEMENT, TYPE=SPRING1, ELSET=SPR_LAT
1207, 143
*ELEMENT, TYPE=SPRING1, ELSET=SPR_AX
544, 144
*ELEMENT, TYPE=SPRING1, ELSET=SPR_VERT
876, 144
*ELEMENT, TYPE=SPRING1, ELSET=SPR_LAT
1208, 144
*ELEMENT, TYPE=SPRING1, ELSET=SPR_AX
545, 145
*ELEMENT, TYPE=SPRING1, ELSET=SPR_VERT
877, 145
*ELEMENT, TYPE=SPRING1, ELSET=SPR_LAT
1209, 145
*ELEMENT, TYPE=SPRING1, ELSET=SPR_AX
546, 146
*ELEMENT, TYPE=SPRING1, ELSET=SPR_VERT
878, 146
*ELEMENT, TYPE=SPRING1, ELSET=SPR_LAT
1210, 146
*ELEMENT, TYPE=SPRING1, ELSET=SPR_AX
547, 147
*ELEMENT, TYPE=SPRING1, ELSET=SPR_VERT
879, 147
*ELEMENT, TYPE=SPRING1, ELSET=SPR_LAT
1211, 147
*ELEMENT, TYPE=SPRING1, ELSET=SPR_AX
548, 148
*ELEMENT, TYPE=SPRING1, ELSET=SPR_VERT
880, 148
*ELEMENT, TYPE=SPRING1, ELSET=SPR_LAT
1212, 148
*ELEMENT, TYPE=SPRING1, ELSET=SPR_AX
549, 149
*ELEMENT, TYPE=SPRING1, ELSET=SPR_VERT
881, 149
*ELEMENT, TYPE=SPRING1, ELSET=SPR_LAT
1213, 149
*ELEMENT, TYPE=SPRING1, ELSET=SPR_AX
550, 150
*ELEMENT, TYPE=SPRING1, ELSET=SPR_VERT
882, 150
*ELEMENT, TYPE=SPRING1, ELSET=SPR_LAT
1214, 150
*ELEMENT, TYPE=SPRING1, ELSET=SPR_AX
551, 151
*ELEMENT, TYPE=SPRING1, ELSET=SPR_VERT
883, 151
*ELEMENT, TYPE=SPRING1, ELSET=SPR_LAT
1215, 151
*ELEMENT, TYPE=SPRING1, ELSET=SPR_AX
552, 152
*ELEMENT, TYPE=SPRING1, ELSET=SPR_VERT
884, 152
*ELEMENT, TYPE=SPRING1, ELSET=SPR_LAT
1216, 152
*ELEMENT, TYPE=SPRING1, ELSET=SPR_AX
553, 153
*ELEMENT, TYPE=SPRING1, ELSET=SPR_VERT
885, 153
*ELEMENT, TYPE=SPRING1, ELSET=SPR_LAT
1217, 153
*ELEMENT, TYPE=SPRING1, ELSET=SPR_AX
554, 154
*ELEMENT, TYPE=SPRING1, ELSET=SPR_VERT
886, 154
*ELEMENT, TYPE=SPRING1, ELSET=SPR_LAT
1218, 154
*ELEMENT, TYPE=SPRING1, ELSET=SPR_AX
555, 155
*ELEMENT, TYPE=SPRING1, ELSET=SPR_VERT
887, 155
*ELEMENT, TYPE=SPRING1, ELSET=SPR_LAT
1219, 155
*ELEMENT, TYPE=SPRING1, ELSET=SPR_AX
556, 156
*ELEMENT, TYPE=SPRING1, ELSET=SPR_VERT
888, 156
*ELEMENT, TYPE=SPRING1, ELSET=SPR_LAT
1220, 156
*ELEMENT, TYPE=SPRING1, ELSET=SPR_AX
557, 157
*ELEMENT, TYPE=SPRING1, ELSET=SPR_VERT
889, 157
*ELEMENT, TYPE=SPRING1, ELSET=SPR_LAT
1221, 157
*ELEMENT, TYPE=SPRING1, ELSET=SPR_AX
558, 158
*ELEMENT, TYPE=SPRING1, ELSET=SPR_VERT
890, 158
*ELEMENT, TYPE=SPRING1, ELSET=SPR_LAT
1222, 158
*ELEMENT, TYPE=SPRING1, ELSET=SPR_AX
559, 159
*ELEMENT, TYPE=SPRING1, ELSET=SPR_VERT
891, 159
*ELEMENT, TYPE=SPRING1, ELSET=SPR_LAT
1223, 159
*ELEMENT, TYPE=SPRING1, ELSET=SPR_AX
560, 160
*ELEMENT, TYPE=SPRING1, ELSET=SPR_VERT
892, 160
*ELEMENT, TYPE=SPRING1, ELSET=SPR_LAT
1224, 160
*ELEMENT, TYPE=SPRING1, ELSET=SPR_AX
561, 161
*ELEMENT, TYPE=SPRING1, ELSET=SPR_VERT
893, 161
*ELEMENT, TYPE=SPRING1, ELSET=SPR_LAT
1225, 161
*ELEMENT, TYPE=SPRING1, ELSET=SPR_AX
562, 176
*ELEMENT, TYPE=SPRING1, ELSET=SPR_VERT
894, 176
*ELEMENT, TYPE=SPRING1, ELSET=SPR_LAT
1226, 176
*ELEMENT, TYPE=SPRING1, ELSET=SPR_AX
563, 177
*ELEMENT, TYPE=SPRING1, ELSET=SPR_VERT
895, 177
*ELEMENT, TYPE=SPRING1, ELSET=SPR_LAT
1227, 177
*ELEMENT, TYPE=SPRING1, ELSET=SPR_AX
564, 178
*ELEMENT, TYPE=SPRING1, ELSET=SPR_VERT
896, 178
*ELEMENT, TYPE=SPRING1, ELSET=SPR_LAT
1228, 178
*ELEMENT, TYPE=SPRING1, ELSET=SPR_AX
565, 179
*ELEMENT, TYPE=SPRING1, ELSET=SPR_VERT
897, 179
*ELEMENT, TYPE=SPRING1, ELSET=SPR_LAT
1229, 179
*ELEMENT, TYPE=SPRING1, ELSET=SPR_AX
566, 180
*ELEMENT, TYPE=SPRING1, ELSET=SPR_VERT
898, 180
*ELEMENT, TYPE=SPRING1, ELSET=SPR_LAT
1230, 180
*ELEMENT, TYPE=SPRING1, ELSET=SPR_AX
567, 222
*ELEMENT, TYPE=SPRING1, ELSET=SPR_VERT
899, 222
*ELEMENT, TYPE=SPRING1, ELSET=SPR_LAT
1231, 222
*ELEMENT, TYPE=SPRING1, ELSET=SPR_AX
568, 223
*ELEMENT, TYPE=SPRING1, ELSET=SPR_VERT
900, 223
*ELEMENT, TYPE=SPRING1, ELSET=SPR_LAT
1232, 223
*ELEMENT, TYPE=SPRING1, ELSET=SPR_AX
569, 224
*ELEMENT, TYPE=SPRING1, ELSET=SPR_VERT
901, 224
*ELEMENT, TYPE=SPRING1, ELSET=SPR_LAT
1233, 224
*ELEMENT, TYPE=SPRING1, ELSET=SPR_AX
570, 225
*ELEMENT, TYPE=SPRING1, ELSET=SPR_VERT
902, 225
*ELEMENT, TYPE=SPRING1, ELSET=SPR_LAT
1234, 225
*ELEMENT, TYPE=SPRING1, ELSET=SPR_AX
571, 226
*ELEMENT, TYPE=SPRING1, ELSET=SPR_VERT
903, 226
*ELEMENT, TYPE=SPRING1, ELSET=SPR_LAT
1235, 226
*ELEMENT, TYPE=SPRING1, ELSET=SPR_AX
572, 241
*ELEMENT, TYPE=SPRING1, ELSET=SPR_VERT
904, 241
*ELEMENT, TYPE=SPRING1, ELSET=SPR_LAT
1236, 241
*ELEMENT, TYPE=SPRING1, ELSET=SPR_AX
573, 242
*ELEMENT, TYPE=SPRING1, ELSET=SPR_VERT
905, 242
*ELEMENT, TYPE=SPRING1, ELSET=SPR_LAT
1237, 242
*ELEMENT, TYPE=SPRING1, ELSET=SPR_AX
574, 243
*ELEMENT, TYPE=SPRING1, ELSET=SPR_VERT
906, 243
*ELEMENT, TYPE=SPRING1, ELSET=SPR_LAT
1238, 243
*ELEMENT, TYPE=SPRING1, ELSET=SPR_AX
575, 244
*ELEMENT, TYPE=SPRING1, ELSET=SPR_VERT
907, 244
*ELEMENT, TYPE=SPRING1, ELSET=SPR_LAT
1239, 244
*ELEMENT, TYPE=SPRING1, ELSET=SPR_AX
576, 245
*ELEMENT, TYPE=SPRING1, ELSET=SPR_VERT
908, 245
*ELEMENT, TYPE=SPRING1, ELSET=SPR_LAT
1240, 245
*ELEMENT, TYPE=SPRING1, ELSET=SPR_AX
577, 246
*ELEMENT, TYPE=SPRING1, ELSET=SPR_VERT
909, 246
*ELEMENT, TYPE=SPRING1, ELSET=SPR_LAT
1241, 246
*ELEMENT, TYPE=SPRING1, ELSET=SPR_AX
578, 247
*ELEMENT, TYPE=SPRING1, ELSET=SPR_VERT
910, 247
*ELEMENT, TYPE=SPRING1, ELSET=SPR_LAT
1242, 247
*ELEMENT, TYPE=SPRING1, ELSET=SPR_AX
579, 248
*ELEMENT, TYPE=SPRING1, ELSET=SPR_VERT
911, 248
*ELEMENT, TYPE=SPRING1, ELSET=SPR_LAT
1243, 248
*ELEMENT, TYPE=SPRING1, ELSET=SPR_AX
580, 249
*ELEMENT, TYPE=SPRING1, ELSET=SPR_VERT
912, 249
*ELEMENT, TYPE=SPRING1, ELSET=SPR_LAT
1244, 249
*ELEMENT, TYPE=SPRING1, ELSET=SPR_AX
581, 250
*ELEMENT, TYPE=SPRING1, ELSET=SPR_VERT
913, 250
*ELEMENT, TYPE=SPRING1, ELSET=SPR_LAT
1245, 250
*ELEMENT, TYPE=SPRING1, ELSET=SPR_AX
582, 251
*ELEMENT, TYPE=SPRING1, ELSET=SPR_VERT
914, 251
*ELEMENT, TYPE=SPRING1, ELSET=SPR_LAT
1246, 251
*ELEMENT, TYPE=SPRING1, ELSET=SPR_AX
583, 252
*ELEMENT, TYPE=SPRING1, ELSET=SPR_VERT
915, 252
*ELEMENT, TYPE=SPRING1, ELSET=SPR_LAT
1247, 252
*ELEMENT, TYPE=SPRING1, ELSET=SPR_AX
584, 253
*ELEMENT, TYPE=SPRING1, ELSET=SPR_VERT
916, 253
*ELEMENT, TYPE=SPRING1, ELSET=SPR_LAT
1248, 253
*ELEMENT, TYPE=SPRING1, ELSET=SPR_AX
585, 254
*ELEMENT, TYPE=SPRING1, ELSET=SPR_VERT
917, 254
*ELEMENT, TYPE=SPRING1, ELSET=SPR_LAT
1249, 254
*ELEMENT, TYPE=SPRING1, ELSET=SPR_AX
586, 255
*ELEMENT, TYPE=SPRING1, ELSET=SPR_VERT
918, 255
*ELEMENT, TYPE=SPRING1, ELSET=SPR_LAT
1250, 255
*ELEMENT, TYPE=SPRING1, ELSET=SPR_AX
587, 256
*ELEMENT, TYPE=SPRING1, ELSET=SPR_VERT
919, 256
*ELEMENT, TYPE=SPRING1, ELSET=SPR_LAT
1251, 256
*ELEMENT, TYPE=SPRING1, ELSET=SPR_AX
588, 257
*ELEMENT, TYPE=SPRING1, ELSET=SPR_VERT
920, 257
*ELEMENT, TYPE=SPRING1, ELSET=SPR_LAT
1252, 257
*ELEMENT, TYPE=SPRING1, ELSET=SPR_AX
589, 258
*ELEMENT, TYPE=SPRING1, ELSET=SPR_VERT
921, 258
*ELEMENT, TYPE=SPRING1, ELSET=SPR_LAT
1253, 258
*ELEMENT, TYPE=SPRING1, ELSET=SPR_AX
590, 259
*ELEMENT, TYPE=SPRING1, ELSET=SPR_VERT
922, 259
*ELEMENT, TYPE=SPRING1, ELSET=SPR_LAT
1254, 259
*ELEMENT, TYPE=SPRING1, ELSET=SPR_AX
591, 260
*ELEMENT, TYPE=SPRING1, ELSET=SPR_VERT
923, 260
*ELEMENT, TYPE=SPRING1, ELSET=SPR_LAT
1255, 260
*ELEMENT, TYPE=SPRING1, ELSET=SPR_AX
592, 261
*ELEMENT, TYPE=SPRING1, ELSET=SPR_VERT
924, 261
*ELEMENT, TYPE=SPRING1, ELSET=SPR_LAT
1256, 261
*ELEMENT, TYPE=SPRING1, ELSET=SPR_AX
593, 262
*ELEMENT, TYPE=SPRING1, ELSET=SPR_VERT
925, 262
*ELEMENT, TYPE=SPRING1, ELSET=SPR_LAT
1257, 262
*ELEMENT, TYPE=SPRING1, ELSET=SPR_AX
594, 263
*ELEMENT, TYPE=SPRING1, ELSET=SPR_VERT
926, 263
*ELEMENT, TYPE=SPRING1, ELSET=SPR_LAT
1258, 263
*ELEMENT, TYPE=SPRING1, ELSET=SPR_AX
595, 264
*ELEMENT, TYPE=SPRING1, ELSET=SPR_VERT
927, 264
*ELEMENT, TYPE=SPRING1, ELSET=SPR_LAT
1259, 264
*ELEMENT, TYPE=SPRING1, ELSET=SPR_AX
596, 265
*ELEMENT, TYPE=SPRING1, ELSET=SPR_VERT
928, 265
*ELEMENT, TYPE=SPRING1, ELSET=SPR_LAT
1260, 265
*ELEMENT, TYPE=SPRING1, ELSET=SPR_AX
597, 266
*ELEMENT, TYPE=SPRING1, ELSET=SPR_VERT
929, 266
*ELEMENT, TYPE=SPRING1, ELSET=SPR_LAT
1261, 266
*ELEMENT, TYPE=SPRING1, ELSET=SPR_AX
598, 267
*ELEMENT, TYPE=SPRING1, ELSET=SPR_VERT
930, 267
*ELEMENT, TYPE=SPRING1, ELSET=SPR_LAT
1262, 267
*ELEMENT, TYPE=SPRING1, ELSET=SPR_AX
599, 268
*ELEMENT, TYPE=SPRING1, ELSET=SPR_VERT
931, 268
*ELEMENT, TYPE=SPRING1, ELSET=SPR_LAT
1263, 268
*ELEMENT, TYPE=SPRING1, ELSET=SPR_AX
600, 269
*ELEMENT, TYPE=SPRING1, ELSET=SPR_VERT
932, 269
*ELEMENT, TYPE=SPRING1, ELSET=SPR_LAT
1264, 269
*ELEMENT, TYPE=SPRING1, ELSET=SPR_AX
601, 270
*ELEMENT, TYPE=SPRING1, ELSET=SPR_VERT
933, 270
*ELEMENT, TYPE=SPRING1, ELSET=SPR_LAT
1265, 270
*ELEMENT, TYPE=SPRING1, ELSET=SPR_AX
602, 271
*ELEMENT, TYPE=SPRING1, ELSET=SPR_VERT
934, 271
*ELEMENT, TYPE=SPRING1, ELSET=SPR_LAT
1266, 271
*ELEMENT, TYPE=SPRING1, ELSET=SPR_AX
603, 272
*ELEMENT, TYPE=SPRING1, ELSET=SPR_VERT
935, 272
*ELEMENT, TYPE=SPRING1, ELSET=SPR_LAT
1267, 272
*ELEMENT, TYPE=SPRING1, ELSET=SPR_AX
604, 273
*ELEMENT, TYPE=SPRING1, ELSET=SPR_VERT
936, 273
*ELEMENT, TYPE=SPRING1, ELSET=SPR_LAT
1268, 273
*ELEMENT, TYPE=SPRING1, ELSET=SPR_AX
605, 274
*ELEMENT, TYPE=SPRING1, ELSET=SPR_VERT
937, 274
*ELEMENT, TYPE=SPRING1, ELSET=SPR_LAT
1269, 274
*ELEMENT, TYPE=SPRING1, ELSET=SPR_AX
606, 275
*ELEMENT, TYPE=SPRING1, ELSET=SPR_VERT
938, 275
*ELEMENT, TYPE=SPRING1, ELSET=SPR_LAT
1270, 275
*ELEMENT, TYPE=SPRING1, ELSET=SPR_AX
607, 276
*ELEMENT, TYPE=SPRING1, ELSET=SPR_VERT
939, 276
*ELEMENT, TYPE=SPRING1, ELSET=SPR_LAT
1271, 276
*ELEMENT, TYPE=SPRING1, ELSET=SPR_AX
608, 277
*ELEMENT, TYPE=SPRING1, ELSET=SPR_VERT
940, 277
*ELEMENT, TYPE=SPRING1, ELSET=SPR_LAT
1272, 277
*ELEMENT, TYPE=SPRING1, ELSET=SPR_AX
609, 278
*ELEMENT, TYPE=SPRING1, ELSET=SPR_VERT
941, 278
*ELEMENT, TYPE=SPRING1, ELSET=SPR_LAT
1273, 278
*ELEMENT, TYPE=SPRING1, ELSET=SPR_AX
610, 279
*ELEMENT, TYPE=SPRING1, ELSET=SPR_VERT
942, 279
*ELEMENT, TYPE=SPRING1, ELSET=SPR_LAT
1274, 279
*ELEMENT, TYPE=SPRING1, ELSET=SPR_AX
611, 280
*ELEMENT, TYPE=SPRING1, ELSET=SPR_VERT
943, 280
*ELEMENT, TYPE=SPRING1, ELSET=SPR_LAT
1275, 280
*ELEMENT, TYPE=SPRING1, ELSET=SPR_AX
612, 281
*ELEMENT, TYPE=SPRING1, ELSET=SPR_VERT
944, 281
*ELEMENT, TYPE=SPRING1, ELSET=SPR_LAT
1276, 281
*ELEMENT, TYPE=SPRING1, ELSET=SPR_AX
613, 282
*ELEMENT, TYPE=SPRING1, ELSET=SPR_VERT
945, 282
*ELEMENT, TYPE=SPRING1, ELSET=SPR_LAT
1277, 282
*ELEMENT, TYPE=SPRING1, ELSET=SPR_AX
614, 283
*ELEMENT, TYPE=SPRING1, ELSET=SPR_VERT
946, 283
*ELEMENT, TYPE=SPRING1, ELSET=SPR_LAT
1278, 283
*ELEMENT, TYPE=SPRING1, ELSET=SPR_AX
615, 284
*ELEMENT, TYPE=SPRING1, ELSET=SPR_VERT
947, 284
*ELEMENT, TYPE=SPRING1, ELSET=SPR_LAT
1279, 284
*ELEMENT, TYPE=SPRING1, ELSET=SPR_AX
616, 285
*ELEMENT, TYPE=SPRING1, ELSET=SPR_VERT
948, 285
*ELEMENT, TYPE=SPRING1, ELSET=SPR_LAT
1280, 285
*ELEMENT, TYPE=SPRING1, ELSET=SPR_AX
617, 286
*ELEMENT, TYPE=SPRING1, ELSET=SPR_VERT
949, 286
*ELEMENT, TYPE=SPRING1, ELSET=SPR_LAT
1281, 286
*ELEMENT, TYPE=SPRING1, ELSET=SPR_AX
618, 287
*ELEMENT, TYPE=SPRING1, ELSET=SPR_VERT
950, 287
*ELEMENT, TYPE=SPRING1, ELSET=SPR_LAT
1282, 287
*ELEMENT, TYPE=SPRING1, ELSET=SPR_AX
619, 288
*ELEMENT, TYPE=SPRING1, ELSET=SPR_VERT
951, 288
*ELEMENT, TYPE=SPRING1, ELSET=SPR_LAT
1283, 288
*ELEMENT, TYPE=SPRING1, ELSET=SPR_AX
620, 289
*ELEMENT, TYPE=SPRING1, ELSET=SPR_VERT
952, 289
*ELEMENT, TYPE=SPRING1, ELSET=SPR_LAT
1284, 289
*ELEMENT, TYPE=SPRING1, ELSET=SPR_AX
621, 290
*ELEMENT, TYPE=SPRING1, ELSET=SPR_VERT
953, 290
*ELEMENT, TYPE=SPRING1, ELSET=SPR_LAT
1285, 290
*ELEMENT, TYPE=SPRING1, ELSET=SPR_AX
622, 291
*ELEMENT, TYPE=SPRING1, ELSET=SPR_VERT
954, 291
*ELEMENT, TYPE=SPRING1, ELSET=SPR_LAT
1286, 291
*ELEMENT, TYPE=SPRING1, ELSET=SPR_AX
623, 292
*ELEMENT, TYPE=SPRING1, ELSET=SPR_VERT
955, 292
*ELEMENT, TYPE=SPRING1, ELSET=SPR_LAT
1287, 292
*ELEMENT, TYPE=SPRING1, ELSET=SPR_AX
624, 293
*ELEMENT, TYPE=SPRING1, ELSET=SPR_VERT
956, 293
*ELEMENT, TYPE=SPRING1, ELSET=SPR_LAT
1288, 293
*ELEMENT, TYPE=SPRING1, ELSET=SPR_AX
625, 294
*ELEMENT, TYPE=SPRING1, ELSET=SPR_VERT
957, 294
*ELEMENT, TYPE=SPRING1, ELSET=SPR_LAT
1289, 294
*ELEMENT, TYPE=SPRING1, ELSET=SPR_AX
626, 295
*ELEMENT, TYPE=SPRING1, ELSET=SPR_VERT
958, 295
*ELEMENT, TYPE=SPRING1, ELSET=SPR_LAT
1290, 295
*ELEMENT, TYPE=SPRING1, ELSET=SPR_AX
627, 296
*ELEMENT, TYPE=SPRING1, ELSET=SPR_VERT
959, 296
*ELEMENT, TYPE=SPRING1, ELSET=SPR_LAT
1291, 296
*ELEMENT, TYPE=SPRING1, ELSET=SPR_AX
628, 297
*ELEMENT, TYPE=SPRING1, ELSET=SPR_VERT
960, 297
*ELEMENT, TYPE=SPRING1, ELSET=SPR_LAT
1292, 297
*ELEMENT, TYPE=SPRING1, ELSET=SPR_AX
629, 298
*ELEMENT, TYPE=SPRING1, ELSET=SPR_VERT
961, 298
*ELEMENT, TYPE=SPRING1, ELSET=SPR_LAT
1293, 298
*ELEMENT, TYPE=SPRING1, ELSET=SPR_AX
630, 299
*ELEMENT, TYPE=SPRING1, ELSET=SPR_VERT
962, 299
*ELEMENT, TYPE=SPRING1, ELSET=SPR_LAT
1294, 299
*ELEMENT, TYPE=SPRING1, ELSET=SPR_AX
631, 300
*ELEMENT, TYPE=SPRING1, ELSET=SPR_VERT
963, 300
*ELEMENT, TYPE=SPRING1, ELSET=SPR_LAT
1295, 300
*ELEMENT, TYPE=SPRING1, ELSET=SPR_AX
632, 301
*ELEMENT, TYPE=SPRING1, ELSET=SPR_VERT
964, 301
*ELEMENT, TYPE=SPRING1, ELSET=SPR_LAT
1296, 301
*ELEMENT, TYPE=SPRING1, ELSET=SPR_AX
633, 302
*ELEMENT, TYPE=SPRING1, ELSET=SPR_VERT
965, 302
*ELEMENT, TYPE=SPRING1, ELSET=SPR_LAT
1297, 302
*ELEMENT, TYPE=SPRING1, ELSET=SPR_AX
634, 303
*ELEMENT, TYPE=SPRING1, ELSET=SPR_VERT
966, 303
*ELEMENT, TYPE=SPRING1, ELSET=SPR_LAT
1298, 303
*ELEMENT, TYPE=SPRING1, ELSET=SPR_AX
635, 304
*ELEMENT, TYPE=SPRING1, ELSET=SPR_VERT
967, 304
*ELEMENT, TYPE=SPRING1, ELSET=SPR_LAT
1299, 304
*ELEMENT, TYPE=SPRING1, ELSET=SPR_AX
636, 305
*ELEMENT, TYPE=SPRING1, ELSET=SPR_VERT
968, 305
*ELEMENT, TYPE=SPRING1, ELSET=SPR_LAT
1300, 305
*ELEMENT, TYPE=SPRING1, ELSET=SPR_AX
637, 306
*ELEMENT, TYPE=SPRING1, ELSET=SPR_VERT
969, 306
*ELEMENT, TYPE=SPRING1, ELSET=SPR_LAT
1301, 306
*ELEMENT, TYPE=SPRING1, ELSET=SPR_AX
638, 307
*ELEMENT, TYPE=SPRING1, ELSET=SPR_VERT
970, 307
*ELEMENT, TYPE=SPRING1, ELSET=SPR_LAT
1302, 307
*ELEMENT, TYPE=SPRING1, ELSET=SPR_AX
639, 308
*ELEMENT, TYPE=SPRING1, ELSET=SPR_VERT
971, 308
*ELEMENT, TYPE=SPRING1, ELSET=SPR_LAT
1303, 308
*ELEMENT, TYPE=SPRING1, ELSET=SPR_AX
640, 309
*ELEMENT, TYPE=SPRING1, ELSET=SPR_VERT
972, 309
*ELEMENT, TYPE=SPRING1, ELSET=SPR_LAT
1304, 309
*ELEMENT, TYPE=SPRING1, ELSET=SPR_AX
641, 310
*ELEMENT, TYPE=SPRING1, ELSET=SPR_VERT
973, 310
*ELEMENT, TYPE=SPRING1, ELSET=SPR_LAT
1305, 310
*ELEMENT, TYPE=SPRING1, ELSET=SPR_AX
642, 311
*ELEMENT, TYPE=SPRING1, ELSET=SPR_VERT
974, 311
*ELEMENT, TYPE=SPRING1, ELSET=SPR_LAT
1306, 311
*ELEMENT, TYPE=SPRING1, ELSET=SPR_AX
643, 312
*ELEMENT, TYPE=SPRING1, ELSET=SPR_VERT
975, 312
*ELEMENT, TYPE=SPRING1, ELSET=SPR_LAT
1307, 312
*ELEMENT, TYPE=SPRING1, ELSET=SPR_AX
644, 313
*ELEMENT, TYPE=SPRING1, ELSET=SPR_VERT
976, 313
*ELEMENT, TYPE=SPRING1, ELSET=SPR_LAT
1308, 313
*ELEMENT, TYPE=SPRING1, ELSET=SPR_AX
645, 314
*ELEMENT, TYPE=SPRING1, ELSET=SPR_VERT
977, 314
*ELEMENT, TYPE=SPRING1, ELSET=SPR_LAT
1309, 314
*ELEMENT, TYPE=SPRING1, ELSET=SPR_AX
646, 315
*ELEMENT, TYPE=SPRING1, ELSET=SPR_VERT
978, 315
*ELEMENT, TYPE=SPRING1, ELSET=SPR_LAT
1310, 315
*ELEMENT, TYPE=SPRING1, ELSET=SPR_AX
647, 316
*ELEMENT, TYPE=SPRING1, ELSET=SPR_VERT
979, 316
*ELEMENT, TYPE=SPRING1, ELSET=SPR_LAT
1311, 316
*ELEMENT, TYPE=SPRING1, ELSET=SPR_AX
648, 317
*ELEMENT, TYPE=SPRING1, ELSET=SPR_VERT
980, 317
*ELEMENT, TYPE=SPRING1, ELSET=SPR_LAT
1312, 317
*ELEMENT, TYPE=SPRING1, ELSET=SPR_AX
649, 318
*ELEMENT, TYPE=SPRING1, ELSET=SPR_VERT
981, 318
*ELEMENT, TYPE=SPRING1, ELSET=SPR_LAT
1313, 318
*ELEMENT, TYPE=SPRING1, ELSET=SPR_AX
650, 319
*ELEMENT, TYPE=SPRING1, ELSET=SPR_VERT
982, 319
*ELEMENT, TYPE=SPRING1, ELSET=SPR_LAT
1314, 319
*ELEMENT, TYPE=SPRING1, ELSET=SPR_AX
651, 320
*ELEMENT, TYPE=SPRING1, ELSET=SPR_VERT
983, 320
*ELEMENT, TYPE=SPRING1, ELSET=SPR_LAT
1315, 320
*ELEMENT, TYPE=SPRING1, ELSET=SPR_AX
652, 321
*ELEMENT, TYPE=SPRING1, ELSET=SPR_VERT
984, 321
*ELEMENT, TYPE=SPRING1, ELSET=SPR_LAT
1316, 321
*ELEMENT, TYPE=SPRING1, ELSET=SPR_AX
653, 322
*ELEMENT, TYPE=SPRING1, ELSET=SPR_VERT
985, 322
*ELEMENT, TYPE=SPRING1, ELSET=SPR_LAT
1317, 322
*ELEMENT, TYPE=SPRING1, ELSET=SPR_AX
654, 323
*ELEMENT, TYPE=SPRING1, ELSET=SPR_VERT
986, 323
*ELEMENT, TYPE=SPRING1, ELSET=SPR_LAT
1318, 323
*ELEMENT, TYPE=SPRING1, ELSET=SPR_AX
655, 324
*ELEMENT, TYPE=SPRING1, ELSET=SPR_VERT
987, 324
*ELEMENT, TYPE=SPRING1, ELSET=SPR_LAT
1319, 324
*ELEMENT, TYPE=SPRING1, ELSET=SPR_AX
656, 325
*ELEMENT, TYPE=SPRING1, ELSET=SPR_VERT
988, 325
*ELEMENT, TYPE=SPRING1, ELSET=SPR_LAT
1320, 325
*ELEMENT, TYPE=SPRING1, ELSET=SPR_AX
657, 326
*ELEMENT, TYPE=SPRING1, ELSET=SPR_VERT
989, 326
*ELEMENT, TYPE=SPRING1, ELSET=SPR_LAT
1321, 326
*ELEMENT, TYPE=SPRING1, ELSET=SPR_AX
658, 327
*ELEMENT, TYPE=SPRING1, ELSET=SPR_VERT
990, 327
*ELEMENT, TYPE=SPRING1, ELSET=SPR_LAT
1322, 327
*ELEMENT, TYPE=SPRING1, ELSET=SPR_AX
659, 328
*ELEMENT, TYPE=SPRING1, ELSET=SPR_VERT
991, 328
*ELEMENT, TYPE=SPRING1, ELSET=SPR_LAT
1323, 328
*ELEMENT, TYPE=SPRING1, ELSET=SPR_AX
660, 329
*ELEMENT, TYPE=SPRING1, ELSET=SPR_VERT
992, 329
*ELEMENT, TYPE=SPRING1, ELSET=SPR_LAT
1324, 329
*ELEMENT, TYPE=SPRING1, ELSET=SPR_AX
661, 330
*ELEMENT, TYPE=SPRING1, ELSET=SPR_VERT
993, 330
*ELEMENT, TYPE=SPRING1, ELSET=SPR_LAT
1325, 330
*ELEMENT, TYPE=SPRING1, ELSET=SPR_AX
662, 331
*ELEMENT, TYPE=SPRING1, ELSET=SPR_VERT
994, 331
*ELEMENT, TYPE=SPRING1, ELSET=SPR_LAT
1326, 331
*ELEMENT, TYPE=SPRING1, ELSET=SPR_AX
663, 332
*ELEMENT, TYPE=SPRING1, ELSET=SPR_VERT
995, 332
*ELEMENT, TYPE=SPRING1, ELSET=SPR_LAT
1327, 332
*ELEMENT, TYPE=SPRING1, ELSET=SPR_AX
664, 333
*ELEMENT, TYPE=SPRING1, ELSET=SPR_VERT
996, 333
*ELEMENT, TYPE=SPRING1, ELSET=SPR_LAT
1328, 333
*ELEMENT, TYPE=SPRING1, ELSET=SPR_AX
665, 334
*ELEMENT, TYPE=SPRING1, ELSET=SPR_VERT
997, 334
*ELEMENT, TYPE=SPRING1, ELSET=SPR_LAT
1329, 334
*ELEMENT, TYPE=SPRING1, ELSET=SPR_AX
666, 335
*ELEMENT, TYPE=SPRING1, ELSET=SPR_VERT
998, 335
*ELEMENT, TYPE=SPRING1, ELSET=SPR_LAT
1330, 335
*ELEMENT, TYPE=SPRING1, ELSET=SPR_AX
667, 336
*ELEMENT, TYPE=SPRING1, ELSET=SPR_VERT
999, 336
*ELEMENT, TYPE=SPRING1, ELSET=SPR_LAT
1331, 336
*ELEMENT, TYPE=SPRING1, ELSET=SPR_AX
668, 337
*ELEMENT, TYPE=SPRING1, ELSET=SPR_VERT
1000, 337
*ELEMENT, TYPE=SPRING1, ELSET=SPR_LAT
1332, 337
*ELEMENT, TYPE=SPRING1, ELSET=SPR_AX
669, 338
*ELEMENT, TYPE=SPRING1, ELSET=SPR_VERT
1001, 338
*ELEMENT, TYPE=SPRING1, ELSET=SPR_LAT
1333, 338
*ELEMENT, TYPE=SPRING1, ELSET=SPR_AX
670, 339
*ELEMENT, TYPE=SPRING1, ELSET=SPR_VERT
1002, 339
*ELEMENT, TYPE=SPRING1, ELSET=SPR_LAT
1334, 339
*ELEMENT, TYPE=SPRING1, ELSET=SPR_AX
671, 340
*ELEMENT, TYPE=SPRING1, ELSET=SPR_VERT
1003, 340
*ELEMENT, TYPE=SPRING1, ELSET=SPR_LAT
1335, 340
*ELEMENT, TYPE=SPRING1, ELSET=SPR_AX
672, 341
*ELEMENT, TYPE=SPRING1, ELSET=SPR_VERT
1004, 341
*ELEMENT, TYPE=SPRING1, ELSET=SPR_LAT
1336, 341
*ELEMENT, TYPE=SPRING1, ELSET=SPR_AX
673, 342
*ELEMENT, TYPE=SPRING1, ELSET=SPR_VERT
1005, 342
*ELEMENT, TYPE=SPRING1, ELSET=SPR_LAT
1337, 342
*ELEMENT, TYPE=SPRING1, ELSET=SPR_AX
674, 343
*ELEMENT, TYPE=SPRING1, ELSET=SPR_VERT
1006, 343
*ELEMENT, TYPE=SPRING1, ELSET=SPR_LAT
1338, 343
*ELEMENT, TYPE=SPRING1, ELSET=SPR_AX
675, 344
*ELEMENT, TYPE=SPRING1, ELSET=SPR_VERT
1007, 344
*ELEMENT, TYPE=SPRING1, ELSET=SPR_LAT
1339, 344
*ELEMENT, TYPE=SPRING1, ELSET=SPR_AX
676, 345
*ELEMENT, TYPE=SPRING1, ELSET=SPR_VERT
1008, 345
*ELEMENT, TYPE=SPRING1, ELSET=SPR_LAT
1340, 345
*ELEMENT, TYPE=SPRING1, ELSET=SPR_AX
677, 346
*ELEMENT, TYPE=SPRING1, ELSET=SPR_VERT
1009, 346
*ELEMENT, TYPE=SPRING1, ELSET=SPR_LAT
1341, 346
*ELEMENT, TYPE=SPRING1, ELSET=SPR_AX
678, 347
*ELEMENT, TYPE=SPRING1, ELSET=SPR_VERT
1010, 347
*ELEMENT, TYPE=SPRING1, ELSET=SPR_LAT
1342, 347
*ELEMENT, TYPE=SPRING1, ELSET=SPR_AX
679, 348
*ELEMENT, TYPE=SPRING1, ELSET=SPR_VERT
1011, 348
*ELEMENT, TYPE=SPRING1, ELSET=SPR_LAT
1343, 348
*ELEMENT, TYPE=SPRING1, ELSET=SPR_AX
680, 349
*ELEMENT, TYPE=SPRING1, ELSET=SPR_VERT
1012, 349
*ELEMENT, TYPE=SPRING1, ELSET=SPR_LAT
1344, 349
*ELEMENT, TYPE=SPRING1, ELSET=SPR_AX
681, 350
*ELEMENT, TYPE=SPRING1, ELSET=SPR_VERT
1013, 350
*ELEMENT, TYPE=SPRING1, ELSET=SPR_LAT
1345, 350
*ELEMENT, TYPE=SPRING1, ELSET=SPR_AX
682, 351
*ELEMENT, TYPE=SPRING1, ELSET=SPR_VERT
1014, 351
*ELEMENT, TYPE=SPRING1, ELSET=SPR_LAT
1346, 351
*ELEMENT, TYPE=SPRING1, ELSET=SPR_AX
683, 352
*ELEMENT, TYPE=SPRING1, ELSET=SPR_VERT
1015, 352
*ELEMENT, TYPE=SPRING1, ELSET=SPR_LAT
1347, 352
*ELEMENT, TYPE=SPRING1, ELSET=SPR_AX
684, 353
*ELEMENT, TYPE=SPRING1, ELSET=SPR_VERT
1016, 353
*ELEMENT, TYPE=SPRING1, ELSET=SPR_LAT
1348, 353
*ELEMENT, TYPE=SPRING1, ELSET=SPR_AX
685, 354
*ELEMENT, TYPE=SPRING1, ELSET=SPR_VERT
1017, 354
*ELEMENT, TYPE=SPRING1, ELSET=SPR_LAT
1349, 354
*ELEMENT, TYPE=SPRING1, ELSET=SPR_AX
686, 355
*ELEMENT, TYPE=SPRING1, ELSET=SPR_VERT
1018, 355
*ELEMENT, TYPE=SPRING1, ELSET=SPR_LAT
1350, 355
*ELEMENT, TYPE=SPRING1, ELSET=SPR_AX
687, 356
*ELEMENT, TYPE=SPRING1, ELSET=SPR_VERT
1019, 356
*ELEMENT, TYPE=SPRING1, ELSET=SPR_LAT
1351, 356
*ELEMENT, TYPE=SPRING1, ELSET=SPR_AX
688, 357
*ELEMENT, TYPE=SPRING1, ELSET=SPR_VERT
1020, 357
*ELEMENT, TYPE=SPRING1, ELSET=SPR_LAT
1352, 357
*ELEMENT, TYPE=SPRING1, ELSET=SPR_AX
689, 358
*ELEMENT, TYPE=SPRING1, ELSET=SPR_VERT
1021, 358
*ELEMENT, TYPE=SPRING1, ELSET=SPR_LAT
1353, 358
*ELEMENT, TYPE=SPRING1, ELSET=SPR_AX
690, 359
*ELEMENT, TYPE=SPRING1, ELSET=SPR_VERT
1022, 359
*ELEMENT, TYPE=SPRING1, ELSET=SPR_LAT
1354, 359
*ELEMENT, TYPE=SPRING1, ELSET=SPR_AX
691, 360
*ELEMENT, TYPE=SPRING1, ELSET=SPR_VERT
1023, 360
*ELEMENT, TYPE=SPRING1, ELSET=SPR_LAT
1355, 360
*ELEMENT, TYPE=SPRING1, ELSET=SPR_AX
692, 361
*ELEMENT, TYPE=SPRING1, ELSET=SPR_VERT
1024, 361
*ELEMENT, TYPE=SPRING1, ELSET=SPR_LAT
1356, 361
*ELEMENT, TYPE=SPRING1, ELSET=SPR_AX
693, 362
*ELEMENT, TYPE=SPRING1, ELSET=SPR_VERT
1025, 362
*ELEMENT, TYPE=SPRING1, ELSET=SPR_LAT
1357, 362
*ELEMENT, TYPE=SPRING1, ELSET=SPR_AX
694, 363
*ELEMENT, TYPE=SPRING1, ELSET=SPR_VERT
1026, 363
*ELEMENT, TYPE=SPRING1, ELSET=SPR_LAT
1358, 363
*ELEMENT, TYPE=SPRING1, ELSET=SPR_AX
695, 364
*ELEMENT, TYPE=SPRING1, ELSET=SPR_VERT
1027, 364
*ELEMENT, TYPE=SPRING1, ELSET=SPR_LAT
1359, 364
*ELEMENT, TYPE=SPRING1, ELSET=SPR_AX
696, 365
*ELEMENT, TYPE=SPRING1, ELSET=SPR_VERT
1028, 365
*ELEMENT, TYPE=SPRING1, ELSET=SPR_LAT
1360, 365
*ELEMENT, TYPE=SPRING1, ELSET=SPR_AX
697, 366
*ELEMENT, TYPE=SPRING1, ELSET=SPR_VERT
1029, 366
*ELEMENT, TYPE=SPRING1, ELSET=SPR_LAT
1361, 366
*ELEMENT, TYPE=SPRING1, ELSET=SPR_AX
698, 367
*ELEMENT, TYPE=SPRING1, ELSET=SPR_VERT
1030, 367
*ELEMENT, TYPE=SPRING1, ELSET=SPR_LAT
1362, 367
*ELEMENT, TYPE=SPRING1, ELSET=SPR_AX
699, 368
*ELEMENT, TYPE=SPRING1, ELSET=SPR_VERT
1031, 368
*ELEMENT, TYPE=SPRING1, ELSET=SPR_LAT
1363, 368
*ELEMENT, TYPE=SPRING1, ELSET=SPR_AX
700, 369
*ELEMENT, TYPE=SPRING1, ELSET=SPR_VERT
1032, 369
*ELEMENT, TYPE=SPRING1, ELSET=SPR_LAT
1364, 369
*ELEMENT, TYPE=SPRING1, ELSET=SPR_AX
701, 370
*ELEMENT, TYPE=SPRING1, ELSET=SPR_VERT
1033, 370
*ELEMENT, TYPE=SPRING1, ELSET=SPR_LAT
1365, 370
*ELEMENT, TYPE=SPRING1, ELSET=SPR_AX
702, 371
*ELEMENT, TYPE=SPRING1, ELSET=SPR_VERT
1034, 371
*ELEMENT, TYPE=SPRING1, ELSET=SPR_LAT
1366, 371
*ELEMENT, TYPE=SPRING1, ELSET=SPR_AX
703, 372
*ELEMENT, TYPE=SPRING1, ELSET=SPR_VERT
1035, 372
*ELEMENT, TYPE=SPRING1, ELSET=SPR_LAT
1367, 372
*ELEMENT, TYPE=SPRING1, ELSET=SPR_AX
704, 373
*ELEMENT, TYPE=SPRING1, ELSET=SPR_VERT
1036, 373
*ELEMENT, TYPE=SPRING1, ELSET=SPR_LAT
1368, 373
*ELEMENT, TYPE=SPRING1, ELSET=SPR_AX
705, 374
*ELEMENT, TYPE=SPRING1, ELSET=SPR_VERT
1037, 374
*ELEMENT, TYPE=SPRING1, ELSET=SPR_LAT
1369, 374
*ELEMENT, TYPE=SPRING1, ELSET=SPR_AX
706, 375
*ELEMENT, TYPE=SPRING1, ELSET=SPR_VERT
1038, 375
*ELEMENT, TYPE=SPRING1, ELSET=SPR_LAT
1370, 375
*ELEMENT, TYPE=SPRING1, ELSET=SPR_AX
707, 376
*ELEMENT, TYPE=SPRING1, ELSET=SPR_VERT
1039, 376
*ELEMENT, TYPE=SPRING1, ELSET=SPR_LAT
1371, 376
*ELEMENT, TYPE=SPRING1, ELSET=SPR_AX
708, 377
*ELEMENT, TYPE=SPRING1, ELSET=SPR_VERT
1040, 377
*ELEMENT, TYPE=SPRING1, ELSET=SPR_LAT
1372, 377
*ELEMENT, TYPE=SPRING1, ELSET=SPR_AX
709, 378
*ELEMENT, TYPE=SPRING1, ELSET=SPR_VERT
1041, 378
*ELEMENT, TYPE=SPRING1, ELSET=SPR_LAT
1373, 378
*ELEMENT, TYPE=SPRING1, ELSET=SPR_AX
710, 379
*ELEMENT, TYPE=SPRING1, ELSET=SPR_VERT
1042, 379
*ELEMENT, TYPE=SPRING1, ELSET=SPR_LAT
1374, 379
*ELEMENT, TYPE=SPRING1, ELSET=SPR_AX
711, 380
*ELEMENT, TYPE=SPRING1, ELSET=SPR_VERT
1043, 380
*ELEMENT, TYPE=SPRING1, ELSET=SPR_LAT
1375, 380
*ELEMENT, TYPE=SPRING1, ELSET=SPR_AX
712, 381
*ELEMENT, TYPE=SPRING1, ELSET=SPR_VERT
1044, 381
*ELEMENT, TYPE=SPRING1, ELSET=SPR_LAT
1376, 381
*ELEMENT, TYPE=SPRING1, ELSET=SPR_AX
713, 382
*ELEMENT, TYPE=SPRING1, ELSET=SPR_VERT
1045, 382
*ELEMENT, TYPE=SPRING1, ELSET=SPR_LAT
1377, 382
*ELEMENT, TYPE=SPRING1, ELSET=SPR_AX
714, 383
*ELEMENT, TYPE=SPRING1, ELSET=SPR_VERT
1046, 383
*ELEMENT, TYPE=SPRING1, ELSET=SPR_LAT
1378, 383
*ELEMENT, TYPE=SPRING1, ELSET=SPR_AX
715, 384
*ELEMENT, TYPE=SPRING1, ELSET=SPR_VERT
1047, 384
*ELEMENT, TYPE=SPRING1, ELSET=SPR_LAT
1379, 384
*ELEMENT, TYPE=SPRING1, ELSET=SPR_AX
716, 385
*ELEMENT, TYPE=SPRING1, ELSET=SPR_VERT
1048, 385
*ELEMENT, TYPE=SPRING1, ELSET=SPR_LAT
1380, 385
*ELEMENT, TYPE=SPRING1, ELSET=SPR_AX
717, 386
*ELEMENT, TYPE=SPRING1, ELSET=SPR_VERT
1049, 386
*ELEMENT, TYPE=SPRING1, ELSET=SPR_LAT
1381, 386
*ELEMENT, TYPE=SPRING1, ELSET=SPR_AX
718, 387
*ELEMENT, TYPE=SPRING1, ELSET=SPR_VERT
1050, 387
*ELEMENT, TYPE=SPRING1, ELSET=SPR_LAT
1382, 387
*ELEMENT, TYPE=SPRING1, ELSET=SPR_AX
719, 388
*ELEMENT, TYPE=SPRING1, ELSET=SPR_VERT
1051, 388
*ELEMENT, TYPE=SPRING1, ELSET=SPR_LAT
1383, 388
*ELEMENT, TYPE=SPRING1, ELSET=SPR_AX
720, 389
*ELEMENT, TYPE=SPRING1, ELSET=SPR_VERT
1052, 389
*ELEMENT, TYPE=SPRING1, ELSET=SPR_LAT
1384, 389
*ELEMENT, TYPE=SPRING1, ELSET=SPR_AX
721, 390
*ELEMENT, TYPE=SPRING1, ELSET=SPR_VERT
1053, 390
*ELEMENT, TYPE=SPRING1, ELSET=SPR_LAT
1385, 390
*ELEMENT, TYPE=SPRING1, ELSET=SPR_AX
722, 391
*ELEMENT, TYPE=SPRING1, ELSET=SPR_VERT
1054, 391
*ELEMENT, TYPE=SPRING1, ELSET=SPR_LAT
1386, 391
*ELEMENT, TYPE=SPRING1, ELSET=SPR_AX
723, 392
*ELEMENT, TYPE=SPRING1, ELSET=SPR_VERT
1055, 392
*ELEMENT, TYPE=SPRING1, ELSET=SPR_LAT
1387, 392
*ELEMENT, TYPE=SPRING1, ELSET=SPR_AX
724, 393
*ELEMENT, TYPE=SPRING1, ELSET=SPR_VERT
1056, 393
*ELEMENT, TYPE=SPRING1, ELSET=SPR_LAT
1388, 393
*ELEMENT, TYPE=SPRING1, ELSET=SPR_AX
725, 394
*ELEMENT, TYPE=SPRING1, ELSET=SPR_VERT
1057, 394
*ELEMENT, TYPE=SPRING1, ELSET=SPR_LAT
1389, 394
*ELEMENT, TYPE=SPRING1, ELSET=SPR_AX
726, 395
*ELEMENT, TYPE=SPRING1, ELSET=SPR_VERT
1058, 395
*ELEMENT, TYPE=SPRING1, ELSET=SPR_LAT
1390, 395
*ELEMENT, TYPE=SPRING1, ELSET=SPR_AX
727, 396
*ELEMENT, TYPE=SPRING1, ELSET=SPR_VERT
1059, 396
*ELEMENT, TYPE=SPRING1, ELSET=SPR_LAT
1391, 396
*ELEMENT, TYPE=SPRING1, ELSET=SPR_AX
728, 397
*ELEMENT, TYPE=SPRING1, ELSET=SPR_VERT
1060, 397
*ELEMENT, TYPE=SPRING1, ELSET=SPR_LAT
1392, 397
*ELEMENT, TYPE=SPRING1, ELSET=SPR_AX
729, 398
*ELEMENT, TYPE=SPRING1, ELSET=SPR_VERT
1061, 398
*ELEMENT, TYPE=SPRING1, ELSET=SPR_LAT
1393, 398
*ELEMENT, TYPE=SPRING1, ELSET=SPR_AX
730, 399
*ELEMENT, TYPE=SPRING1, ELSET=SPR_VERT
1062, 399
*ELEMENT, TYPE=SPRING1, ELSET=SPR_LAT
1394, 399
*ELEMENT, TYPE=SPRING1, ELSET=SPR_AX
731, 400
*ELEMENT, TYPE=SPRING1, ELSET=SPR_VERT
1063, 400
*ELEMENT, TYPE=SPRING1, ELSET=SPR_LAT
1395, 400
*ELEMENT, TYPE=SPRING1, ELSET=SPR_AX
732, 401
*ELEMENT, TYPE=SPRING1, ELSET=SPR_VERT
1064, 401
*ELEMENT, TYPE=SPRING1, ELSET=SPR_LAT
1396, 401
*SPRING, ELSET=SPR_AX
1
1.000e+06
*SPRING, ELSET=SPR_VERT
2
2.000e+06
*SPRING, ELSET=SPR_LAT
3
3.000e+06
*AQUA
-150, 0., 9.80665, 1025
*INITIAL CONDITIONS, TYPE=STRESS
PIPE, 3.455e+07
*STEP, INC=100, NLGEOM 
INITIAL SET UP
*STATIC
0.0001, 1.0, 1.0E-9   
*CONTROLS, ANALYSIS=DISCONTINUOUS
*BOUNDARY, OP=NEW 
1, 1, 6 
401, 2, 3
PIPE, 1, 3
*OUTPUT, FIELD, FREQ=10, VARIABLE=PRESELECT 
**   
*ELEMENT OUTPUT, ELSET=PIPE     
SF, SE, ESF1, TEMP
*NODE OUTPUT, NSET=PIPE
U, COORD
** 
*OUTPUT, HISTORY, FREQ=0, VARIABLE=PRESELECT
**
*END STEP 
*STEP, NLGEOM, UNSYMM=YES, INC=2000
FREQUENCY EXTRACTION
*FREQUENCY, EIGENSOLVER=LANCZOS
20
**
*BOUNDARY, OP=NEW
1, 1, 6
401, 2, 3
PIPE, 4, 4
*D ADDED MASS
1, FI, 0.1683, 2.28
2, FI, 0.1683, 2.28
3, FI, 0.1683, 2.28
4, FI, 0.1683, 2.28
5, FI, 0.1683, 2.28
6, FI, 0.1683, 2.28
7, FI, 0.1683, 2.28
8, FI, 0.1683, 2.28
9, FI, 0.1683, 2.28
10, FI, 0.1683, 2.28
11, FI, 0.1683, 2.28
12, FI, 0.1683, 2.28
13, FI, 0.1683, 2.28
14, FI, 0.1683, 2.28
15, FI, 0.1683, 2.28
16, FI, 0.1683, 2.28
17, FI, 0.1683, 2.28
18, FI, 0.1683, 2.28
19, FI, 0.1683, 2.28
20, FI, 0.1683, 2.28
** ... 380 like lines cut
*NODE PRINT, GLOBAL=YES, NSET=PIPE, FREQ=999
U,
*OUTPUT, FIELD, VARIABLE=ALL, FREQUENCY=999
*MODAL FILE
*END STEP
