1

   Abaqus 6.14-2                                  Date 05-Aug-2023   Time 11:11:57
   For use by T_EN NET SAS under license from Dassault Systemes or its subsidiary.



                         The Abaqus Software is a product of:

                           Dassault Systemes Simulia Corp.
                                 Rising Sun Mills
                                 166 Valley Street
                           Providence, RI 02909-2499, USA
 


                   The Abaqus Software is available only under license
                   from Dassault Systemes or its subsidiary and may be
                   used or reproduced only in accordance with the terms
                   of such license.
 
                          On machine WLPF1Y913C 
                          you are authorized to run
                          Abaqus/Standard until 14-Nov-2023

                          Your site id is: 200000000184056 


 
                    For assistance or any other information you may
                    obtain contact information for your local office
                    from the world wide web at:

                      http://www.3ds.com/products/simulia/locations/

 
                * * * * * * * * * * * * * * * * * * * * * * * * * * * * * * 
                *                                                         * 
                *                   *****************                     * 
                *                   *  N O T I C E  *                     * 
                *                   *****************                     * 
                *                                                         * 
                *                                                         * 
                *                    Abaqus 6.14-2                        * 
                *                                                         * 
                *          BUILD ID: 2014_08_22-15.00.46 134497           * 
                *                                                         * 
                *                                                         * 
                *  Please make sure you are using release 6.14 manuals    * 
                *  plus the notes accompanying this release.              * 
                *                                                         * 
                *                                                         * 
                *                                                         * 
                *                                                         * 
                * * * * * * * * * * * * * * * * * * * * * * * * * * * * * * 


 



     PROCESSING PART, INSTANCE, AND ASSEMBLY INFORMATION
   *******************************************************


     END PROCESSING PART, INSTANCE, AND ASSEMBLY INFORMATION
   ***********************************************************




     OPTIONS BEING PROCESSED
   ***************************


  *INCLUDE, INPUT=in_place_nodes.dat

  *** INPUT DATA IS READ FROM FILE in_place_nodes.dat                                                                                                                                                                                                                                             

  *NODE, NSET=PIPE
  *ELEMENT, ELSET=PIPE, TYPE=PIPE31H
  *ELGEN, ELSET=PIPE
  *ELEMENT, TYPE=SPRING1, ELSET=SPR_AX
  *ELEMENT, TYPE=SPRING1, ELSET=SPR_VERT
  *ELEMENT, TYPE=SPRING1, ELSET=SPR_LAT
  *ELEMENT, TYPE=SPRING1, ELSET=SPR_AX
  *ELEMENT, TYPE=SPRING1, ELSET=SPR_VERT
  *ELEMENT, TYPE=SPRING1, ELSET=SPR_LAT
  *ELEMENT, TYPE=SPRING1, ELSET=SPR_AX
  *ELEMENT, TYPE=SPRING1, ELSET=SPR_VERT
  *ELEMENT, TYPE=SPRING1, ELSET=SPR_LAT
  *ELEMENT, TYPE=SPRING1, ELSET=SPR_AX
  *ELEMENT, TYPE=SPRING1, ELSET=SPR_VERT
  *ELEMENT, TYPE=SPRING1, ELSET=SPR_LAT
  *ELEMENT, TYPE=SPRING1, ELSET=SPR_AX
  *ELEMENT, TYPE=SPRING1, ELSET=SPR_VERT
  *ELEMENT, TYPE=SPRING1, ELSET=SPR_LAT
  *ELEMENT, TYPE=SPRING1, ELSET=SPR_AX
  *ELEMENT, TYPE=SPRING1, ELSET=SPR_VERT
  *ELEMENT, TYPE=SPRING1, ELSET=SPR_LAT
  *ELEMENT, TYPE=SPRING1, ELSET=SPR_AX
  *ELEMENT, TYPE=SPRING1, ELSET=SPR_VERT
  *ELEMENT, TYPE=SPRING1, ELSET=SPR_LAT
  *ELEMENT, TYPE=SPRING1, ELSET=SPR_AX
  *ELEMENT, TYPE=SPRING1, ELSET=SPR_VERT
  *ELEMENT, TYPE=SPRING1, ELSET=SPR_LAT
  *ELEMENT, TYPE=SPRING1, ELSET=SPR_AX
  *ELEMENT, TYPE=SPRING1, ELSET=SPR_VERT
  *ELEMENT, TYPE=SPRING1, ELSET=SPR_LAT
  *ELEMENT, TYPE=SPRING1, ELSET=SPR_AX
  *ELEMENT, TYPE=SPRING1, ELSET=SPR_VERT
  *ELEMENT, TYPE=SPRING1, ELSET=SPR_LAT
  *ELEMENT, TYPE=SPRING1, ELSET=SPR_AX
  *ELEMENT, TYPE=SPRING1, ELSET=SPR_VERT
  *ELEMENT, TYPE=SPRING1, ELSET=SPR_LAT
  *ELEMENT, TYPE=SPRING1, ELSET=SPR_AX
  *ELEMENT, TYPE=SPRING1, ELSET=SPR_VERT
  *ELEMENT, TYPE=SPRING1, ELSET=SPR_LAT
  *ELEMENT, TYPE=SPRING1, ELSET=SPR_AX
  *ELEMENT, TYPE=SPRING1, ELSET=SPR_VERT
  *ELEMENT, TYPE=SPRING1, ELSET=SPR_LAT
  *ELEMENT, TYPE=SPRING1, ELSET=SPR_AX
  *ELEMENT, TYPE=SPRING1, ELSET=SPR_VERT
  *ELEMENT, TYPE=SPRING1, ELSET=SPR_LAT
  *ELEMENT, TYPE=SPRING1, ELSET=SPR_AX
  *ELEMENT, TYPE=SPRING1, ELSET=SPR_VERT
  *ELEMENT, TYPE=SPRING1, ELSET=SPR_LAT
  *ELEMENT, TYPE=SPRING1, ELSET=SPR_AX
  *ELEMENT, TYPE=SPRING1, ELSET=SPR_VERT
  *ELEMENT, TYPE=SPRING1, ELSET=SPR_LAT
  *ELEMENT, TYPE=SPRING1, ELSET=SPR_AX
  *ELEMENT, TYPE=SPRING1, ELSET=SPR_VERT
  *ELEMENT, TYPE=SPRING1, ELSET=SPR_LAT
  *ELEMENT, TYPE=SPRING1, ELSET=SPR_AX
  *ELEMENT, TYPE=SPRING1, ELSET=SPR_VERT
  *ELEMENT, TYPE=SPRING1, ELSET=SPR_LAT
  *ELEMENT, TYPE=SPRING1, ELSET=SPR_AX
  *ELEMENT, TYPE=SPRING1, ELSET=SPR_VERT
  *ELEMENT, TYPE=SPRING1, ELSET=SPR_LAT
  *ELEMENT, TYPE=SPRING1, ELSET=SPR_AX
  *ELEMENT, TYPE=SPRING1, ELSET=SPR_VERT
  *ELEMENT, TYPE=SPRING1, ELSET=SPR_LAT
  *ELEMENT, TYPE=SPRING1, ELSET=SPR_AX
  *ELEMENT, TYPE=SPRING1, ELSET=SPR_VERT
  *ELEMENT, TYPE=SPRING1, ELSET=SPR_LAT
  *ELEMENT, TYPE=SPRING1, ELSET=SPR_AX
  *ELEMENT, TYPE=SPRING1, ELSET=SPR_VERT
  *ELEMENT, TYPE=SPRING1, ELSET=SPR_LAT
  *ELEMENT, TYPE=SPRING1, ELSET=SPR_AX
  *ELEMENT, TYPE=SPRING1, ELSET=SPR_VERT
  *ELEMENT, TYPE=SPRING1, ELSET=SPR_LAT
  *ELEMENT, TYPE=SPRING1, ELSET=SPR_AX
  *ELEMENT, TYPE=SPRING1, ELSET=SPR_VERT
  *ELEMENT, TYPE=SPRING1, ELSET=SPR_LAT
  *ELEMENT, TYPE=SPRING1, ELSET=SPR_AX
  *ELEMENT, TYPE=SPRING1, ELSET=SPR_VERT
  *ELEMENT, TYPE=SPRING1, ELSET=SPR_LAT
  *ELEMENT, TYPE=SPRING1, ELSET=SPR_AX
  *ELEMENT, TYPE=SPRING1, ELSET=SPR_VERT
  *ELEMENT, TYPE=SPRING1, ELSET=SPR_LAT
  *ELEMENT, TYPE=SPRING1, ELSET=SPR_AX
  *ELEMENT, TYPE=SPRING1, ELSET=SPR_VERT
  *ELEMENT, TYPE=SPRING1, ELSET=SPR_LAT
  *ELEMENT, TYPE=SPRING1, ELSET=SPR_AX
  *ELEMENT, TYPE=SPRING1, ELSET=SPR_VERT
  *ELEMENT, TYPE=SPRING1, ELSET=SPR_LAT
  *ELEMENT, TYPE=SPRING1, ELSET=SPR_AX
  *ELEMENT, TYPE=SPRING1, ELSET=SPR_VERT
  *ELEMENT, TYPE=SPRING1, ELSET=SPR_LAT
  *ELEMENT, TYPE=SPRING1, ELSET=SPR_AX
  *ELEMENT, TYPE=SPRING1, ELSET=SPR_VERT
  *ELEMENT, TYPE=SPRING1, ELSET=SPR_LAT
  *ELEMENT, TYPE=SPRING1, ELSET=SPR_AX
  *ELEMENT, TYPE=SPRING1, ELSET=SPR_VERT
  *ELEMENT, TYPE=SPRING1, ELSET=SPR_LAT
  *ELEMENT, TYPE=SPRING1, ELSET=SPR_AX
  *ELEMENT, TYPE=SPRING1, ELSET=SPR_VERT
  *ELEMENT, TYPE=SPRING1, ELSET=SPR_LAT
  *ELEMENT, TYPE=SPRING1, ELSET=SPR_AX
  *ELEMENT, TYPE=SPRING1, ELSET=SPR_VERT
  *ELEMENT, TYPE=SPRING1, ELSET=SPR_LAT
  *ELEMENT, TYPE=SPRING1, ELSET=SPR_AX
  *ELEMENT, TYPE=SPRING1, ELSET=SPR_VERT
  *ELEMENT, TYPE=SPRING1, ELSET=SPR_LAT
  *ELEMENT, TYPE=SPRING1, ELSET=SPR_AX
  *ELEMENT, TYPE=SPRING1, ELSET=SPR_VERT
  *ELEMENT, TYPE=SPRING1, ELSET=SPR_LAT
  *ELEMENT, TYPE=SPRING1, ELSET=SPR_AX
  *ELEMENT, TYPE=SPRING1, ELSET=SPR_VERT
  *ELEMENT, TYPE=SPRING1, ELSET=SPR_LAT
  *ELEMENT, TYPE=SPRING1, ELSET=SPR_AX
  *ELEMENT, TYPE=SPRING1, ELSET=SPR_VERT
  *ELEMENT, TYPE=SPRING1, ELSET=SPR_LAT
  *ELEMENT, TYPE=SPRING1, ELSET=SPR_AX
  *ELEMENT, TYPE=SPRING1, ELSET=SPR_VERT
  *ELEMENT, TYPE=SPRING1, ELSET=SPR_LAT
  *ELEMENT, TYPE=SPRING1, ELSET=SPR_AX
  *ELEMENT, TYPE=SPRING1, ELSET=SPR_VERT
  *ELEMENT, TYPE=SPRING1, ELSET=SPR_LAT
  *ELEMENT, TYPE=SPRING1, ELSET=SPR_AX
  *ELEMENT, TYPE=SPRING1, ELSET=SPR_VERT
  *ELEMENT, TYPE=SPRING1, ELSET=SPR_LAT
  *ELEMENT, TYPE=SPRING1, ELSET=SPR_AX
  *ELEMENT, TYPE=SPRING1, ELSET=SPR_VERT
  *ELEMENT, TYPE=SPRING1, ELSET=SPR_LAT
  *ELEMENT, TYPE=SPRING1, ELSET=SPR_AX
  *ELEMENT, TYPE=SPRING1, ELSET=SPR_VERT
  *ELEMENT, TYPE=SPRING1, ELSET=SPR_LAT
  *ELEMENT, TYPE=SPRING1, ELSET=SPR_AX
  *ELEMENT, TYPE=SPRING1, ELSET=SPR_VERT
  *ELEMENT, TYPE=SPRING1, ELSET=SPR_LAT
  *ELEMENT, TYPE=SPRING1, ELSET=SPR_AX
  *ELEMENT, TYPE=SPRING1, ELSET=SPR_VERT
  *ELEMENT, TYPE=SPRING1, ELSET=SPR_LAT
  *ELEMENT, TYPE=SPRING1, ELSET=SPR_AX
  *ELEMENT, TYPE=SPRING1, ELSET=SPR_VERT
  *ELEMENT, TYPE=SPRING1, ELSET=SPR_LAT
  *ELEMENT, TYPE=SPRING1, ELSET=SPR_AX
  *ELEMENT, TYPE=SPRING1, ELSET=SPR_VERT
  *ELEMENT, TYPE=SPRING1, ELSET=SPR_LAT
  *ELEMENT, TYPE=SPRING1, ELSET=SPR_AX
  *ELEMENT, TYPE=SPRING1, ELSET=SPR_VERT
  *ELEMENT, TYPE=SPRING1, ELSET=SPR_LAT
  *ELEMENT, TYPE=SPRING1, ELSET=SPR_AX
  *ELEMENT, TYPE=SPRING1, ELSET=SPR_VERT
  *ELEMENT, TYPE=SPRING1, ELSET=SPR_LAT
  *ELEMENT, TYPE=SPRING1, ELSET=SPR_AX
  *ELEMENT, TYPE=SPRING1, ELSET=SPR_VERT
  *ELEMENT, TYPE=SPRING1, ELSET=SPR_LAT
  *ELEMENT, TYPE=SPRING1, ELSET=SPR_AX
  *ELEMENT, TYPE=SPRING1, ELSET=SPR_VERT
  *ELEMENT, TYPE=SPRING1, ELSET=SPR_LAT
  *ELEMENT, TYPE=SPRING1, ELSET=SPR_AX
  *ELEMENT, TYPE=SPRING1, ELSET=SPR_VERT
  *ELEMENT, TYPE=SPRING1, ELSET=SPR_LAT
  *ELEMENT, TYPE=SPRING1, ELSET=SPR_AX
  *ELEMENT, TYPE=SPRING1, ELSET=SPR_VERT
  *ELEMENT, TYPE=SPRING1, ELSET=SPR_LAT
  *ELEMENT, TYPE=SPRING1, ELSET=SPR_AX
  *ELEMENT, TYPE=SPRING1, ELSET=SPR_VERT
  *ELEMENT, TYPE=SPRING1, ELSET=SPR_LAT
  *ELEMENT, TYPE=SPRING1, ELSET=SPR_AX
  *ELEMENT, TYPE=SPRING1, ELSET=SPR_VERT
  *ELEMENT, TYPE=SPRING1, ELSET=SPR_LAT
  *ELEMENT, TYPE=SPRING1, ELSET=SPR_AX
  *ELEMENT, TYPE=SPRING1, ELSET=SPR_VERT
  *ELEMENT, TYPE=SPRING1, ELSET=SPR_LAT
  *ELEMENT, TYPE=SPRING1, ELSET=SPR_AX
  *ELEMENT, TYPE=SPRING1, ELSET=SPR_VERT
  *ELEMENT, TYPE=SPRING1, ELSET=SPR_LAT
  *ELEMENT, TYPE=SPRING1, ELSET=SPR_AX
  *ELEMENT, TYPE=SPRING1, ELSET=SPR_VERT
  *ELEMENT, TYPE=SPRING1, ELSET=SPR_LAT
  *ELEMENT, TYPE=SPRING1, ELSET=SPR_AX
  *ELEMENT, TYPE=SPRING1, ELSET=SPR_VERT
  *ELEMENT, TYPE=SPRING1, ELSET=SPR_LAT
  *ELEMENT, TYPE=SPRING1, ELSET=SPR_AX
  *ELEMENT, TYPE=SPRING1, ELSET=SPR_VERT
  *ELEMENT, TYPE=SPRING1, ELSET=SPR_LAT
  *ELEMENT, TYPE=SPRING1, ELSET=SPR_AX
  *ELEMENT, TYPE=SPRING1, ELSET=SPR_VERT
  *ELEMENT, TYPE=SPRING1, ELSET=SPR_LAT
  *ELEMENT, TYPE=SPRING1, ELSET=SPR_AX
  *ELEMENT, TYPE=SPRING1, ELSET=SPR_VERT
  *ELEMENT, TYPE=SPRING1, ELSET=SPR_LAT
  *ELEMENT, TYPE=SPRING1, ELSET=SPR_AX
  *ELEMENT, TYPE=SPRING1, ELSET=SPR_VERT
  *ELEMENT, TYPE=SPRING1, ELSET=SPR_LAT
  *ELEMENT, TYPE=SPRING1, ELSET=SPR_AX
  *ELEMENT, TYPE=SPRING1, ELSET=SPR_VERT
  *ELEMENT, TYPE=SPRING1, ELSET=SPR_LAT
  *ELEMENT, TYPE=SPRING1, ELSET=SPR_AX
  *ELEMENT, TYPE=SPRING1, ELSET=SPR_VERT
  *ELEMENT, TYPE=SPRING1, ELSET=SPR_LAT
  *ELEMENT, TYPE=SPRING1, ELSET=SPR_AX
  *ELEMENT, TYPE=SPRING1, ELSET=SPR_VERT
  *ELEMENT, TYPE=SPRING1, ELSET=SPR_LAT
  *ELEMENT, TYPE=SPRING1, ELSET=SPR_AX
  *ELEMENT, TYPE=SPRING1, ELSET=SPR_VERT
  *ELEMENT, TYPE=SPRING1, ELSET=SPR_LAT
  *ELEMENT, TYPE=SPRING1, ELSET=SPR_AX
  *ELEMENT, TYPE=SPRING1, ELSET=SPR_VERT
  *ELEMENT, TYPE=SPRING1, ELSET=SPR_LAT
  *ELEMENT, TYPE=SPRING1, ELSET=SPR_AX
  *ELEMENT, TYPE=SPRING1, ELSET=SPR_VERT
  *ELEMENT, TYPE=SPRING1, ELSET=SPR_LAT
  *ELEMENT, TYPE=SPRING1, ELSET=SPR_AX
  *ELEMENT, TYPE=SPRING1, ELSET=SPR_VERT
  *ELEMENT, TYPE=SPRING1, ELSET=SPR_LAT
  *ELEMENT, TYPE=SPRING1, ELSET=SPR_AX
  *ELEMENT, TYPE=SPRING1, ELSET=SPR_VERT
  *ELEMENT, TYPE=SPRING1, ELSET=SPR_LAT
  *ELEMENT, TYPE=SPRING1, ELSET=SPR_AX
  *ELEMENT, TYPE=SPRING1, ELSET=SPR_VERT
  *ELEMENT, TYPE=SPRING1, ELSET=SPR_LAT
  *ELEMENT, TYPE=SPRING1, ELSET=SPR_AX
  *ELEMENT, TYPE=SPRING1, ELSET=SPR_VERT
  *ELEMENT, TYPE=SPRING1, ELSET=SPR_LAT
  *ELEMENT, TYPE=SPRING1, ELSET=SPR_AX
  *ELEMENT, TYPE=SPRING1, ELSET=SPR_VERT
  *ELEMENT, TYPE=SPRING1, ELSET=SPR_LAT
  *ELEMENT, TYPE=SPRING1, ELSET=SPR_AX
  *ELEMENT, TYPE=SPRING1, ELSET=SPR_VERT
  *ELEMENT, TYPE=SPRING1, ELSET=SPR_LAT
  *ELEMENT, TYPE=SPRING1, ELSET=SPR_AX
  *ELEMENT, TYPE=SPRING1, ELSET=SPR_VERT
  *ELEMENT, TYPE=SPRING1, ELSET=SPR_LAT
  *ELEMENT, TYPE=SPRING1, ELSET=SPR_AX
  *ELEMENT, TYPE=SPRING1, ELSET=SPR_VERT
  *ELEMENT, TYPE=SPRING1, ELSET=SPR_LAT
  *ELEMENT, TYPE=SPRING1, ELSET=SPR_AX
  *ELEMENT, TYPE=SPRING1, ELSET=SPR_VERT
  *ELEMENT, TYPE=SPRING1, ELSET=SPR_LAT
  *ELEMENT, TYPE=SPRING1, ELSET=SPR_AX
  *ELEMENT, TYPE=SPRING1, ELSET=SPR_VERT
  *ELEMENT, TYPE=SPRING1, ELSET=SPR_LAT
  *ELEMENT, TYPE=SPRING1, ELSET=SPR_AX
  *ELEMENT, TYPE=SPRING1, ELSET=SPR_VERT
  *ELEMENT, TYPE=SPRING1, ELSET=SPR_LAT
  *ELEMENT, TYPE=SPRING1, ELSET=SPR_AX
  *ELEMENT, TYPE=SPRING1, ELSET=SPR_VERT
  *ELEMENT, TYPE=SPRING1, ELSET=SPR_LAT
  *ELEMENT, TYPE=SPRING1, ELSET=SPR_AX
  *ELEMENT, TYPE=SPRING1, ELSET=SPR_VERT
  *ELEMENT, TYPE=SPRING1, ELSET=SPR_LAT
  *ELEMENT, TYPE=SPRING1, ELSET=SPR_AX
  *ELEMENT, TYPE=SPRING1, ELSET=SPR_VERT
  *ELEMENT, TYPE=SPRING1, ELSET=SPR_LAT
  *ELEMENT, TYPE=SPRING1, ELSET=SPR_AX
  *ELEMENT, TYPE=SPRING1, ELSET=SPR_VERT
  *ELEMENT, TYPE=SPRING1, ELSET=SPR_LAT
  *ELEMENT, TYPE=SPRING1, ELSET=SPR_AX
  *ELEMENT, TYPE=SPRING1, ELSET=SPR_VERT
  *ELEMENT, TYPE=SPRING1, ELSET=SPR_LAT
  *ELEMENT, TYPE=SPRING1, ELSET=SPR_AX
  *ELEMENT, TYPE=SPRING1, ELSET=SPR_VERT
  *ELEMENT, TYPE=SPRING1, ELSET=SPR_LAT
  *ELEMENT, TYPE=SPRING1, ELSET=SPR_AX
  *ELEMENT, TYPE=SPRING1, ELSET=SPR_VERT
  *ELEMENT, TYPE=SPRING1, ELSET=SPR_LAT
  *ELEMENT, TYPE=SPRING1, ELSET=SPR_AX
  *ELEMENT, TYPE=SPRING1, ELSET=SPR_VERT
  *ELEMENT, TYPE=SPRING1, ELSET=SPR_LAT
  *ELEMENT, TYPE=SPRING1, ELSET=SPR_AX
  *ELEMENT, TYPE=SPRING1, ELSET=SPR_VERT
  *ELEMENT, TYPE=SPRING1, ELSET=SPR_LAT
  *ELEMENT, TYPE=SPRING1, ELSET=SPR_AX
  *ELEMENT, TYPE=SPRING1, ELSET=SPR_VERT
  *ELEMENT, TYPE=SPRING1, ELSET=SPR_LAT
  *ELEMENT, TYPE=SPRING1, ELSET=SPR_AX
  *ELEMENT, TYPE=SPRING1, ELSET=SPR_VERT
  *ELEMENT, TYPE=SPRING1, ELSET=SPR_LAT
  *ELEMENT, TYPE=SPRING1, ELSET=SPR_AX
  *ELEMENT, TYPE=SPRING1, ELSET=SPR_VERT
  *ELEMENT, TYPE=SPRING1, ELSET=SPR_LAT
  *ELEMENT, TYPE=SPRING1, ELSET=SPR_AX
  *ELEMENT, TYPE=SPRING1, ELSET=SPR_VERT
  *ELEMENT, TYPE=SPRING1, ELSET=SPR_LAT
  *ELEMENT, TYPE=SPRING1, ELSET=SPR_AX
  *ELEMENT, TYPE=SPRING1, ELSET=SPR_VERT
  *ELEMENT, TYPE=SPRING1, ELSET=SPR_LAT
  *ELEMENT, TYPE=SPRING1, ELSET=SPR_AX
  *ELEMENT, TYPE=SPRING1, ELSET=SPR_VERT
  *ELEMENT, TYPE=SPRING1, ELSET=SPR_LAT
  *ELEMENT, TYPE=SPRING1, ELSET=SPR_AX
  *ELEMENT, TYPE=SPRING1, ELSET=SPR_VERT
  *ELEMENT, TYPE=SPRING1, ELSET=SPR_LAT
  *ELEMENT, TYPE=SPRING1, ELSET=SPR_AX
  *ELEMENT, TYPE=SPRING1, ELSET=SPR_VERT
  *ELEMENT, TYPE=SPRING1, ELSET=SPR_LAT
  *ELEMENT, TYPE=SPRING1, ELSET=SPR_AX
  *ELEMENT, TYPE=SPRING1, ELSET=SPR_VERT
  *ELEMENT, TYPE=SPRING1, ELSET=SPR_LAT
  *ELEMENT, TYPE=SPRING1, ELSET=SPR_AX
  *ELEMENT, TYPE=SPRING1, ELSET=SPR_VERT
  *ELEMENT, TYPE=SPRING1, ELSET=SPR_LAT
  *ELEMENT, TYPE=SPRING1, ELSET=SPR_AX
  *ELEMENT, TYPE=SPRING1, ELSET=SPR_VERT
  *ELEMENT, TYPE=SPRING1, ELSET=SPR_LAT
  *ELEMENT, TYPE=SPRING1, ELSET=SPR_AX
  *ELEMENT, TYPE=SPRING1, ELSET=SPR_VERT
  *ELEMENT, TYPE=SPRING1, ELSET=SPR_LAT
  *ELEMENT, TYPE=SPRING1, ELSET=SPR_AX
  *ELEMENT, TYPE=SPRING1, ELSET=SPR_VERT
  *ELEMENT, TYPE=SPRING1, ELSET=SPR_LAT
  *ELEMENT, TYPE=SPRING1, ELSET=SPR_AX
  *ELEMENT, TYPE=SPRING1, ELSET=SPR_VERT
  *ELEMENT, TYPE=SPRING1, ELSET=SPR_LAT
  *ELEMENT, TYPE=SPRING1, ELSET=SPR_AX
  *ELEMENT, TYPE=SPRING1, ELSET=SPR_VERT
  *ELEMENT, TYPE=SPRING1, ELSET=SPR_LAT
  *ELEMENT, TYPE=SPRING1, ELSET=SPR_AX
  *ELEMENT, TYPE=SPRING1, ELSET=SPR_VERT
  *ELEMENT, TYPE=SPRING1, ELSET=SPR_LAT
  *ELEMENT, TYPE=SPRING1, ELSET=SPR_AX
  *ELEMENT, TYPE=SPRING1, ELSET=SPR_VERT
  *ELEMENT, TYPE=SPRING1, ELSET=SPR_LAT
  *ELEMENT, TYPE=SPRING1, ELSET=SPR_AX
  *ELEMENT, TYPE=SPRING1, ELSET=SPR_VERT
  *ELEMENT, TYPE=SPRING1, ELSET=SPR_LAT
  *ELEMENT, TYPE=SPRING1, ELSET=SPR_AX
  *ELEMENT, TYPE=SPRING1, ELSET=SPR_VERT
  *ELEMENT, TYPE=SPRING1, ELSET=SPR_LAT
  *ELEMENT, TYPE=SPRING1, ELSET=SPR_AX
  *ELEMENT, TYPE=SPRING1, ELSET=SPR_VERT
  *ELEMENT, TYPE=SPRING1, ELSET=SPR_LAT
  *ELEMENT, TYPE=SPRING1, ELSET=SPR_AX
  *ELEMENT, TYPE=SPRING1, ELSET=SPR_VERT
  *ELEMENT, TYPE=SPRING1, ELSET=SPR_LAT
  *ELEMENT, TYPE=SPRING1, ELSET=SPR_AX
  *ELEMENT, TYPE=SPRING1, ELSET=SPR_VERT
  *ELEMENT, TYPE=SPRING1, ELSET=SPR_LAT
  *ELEMENT, TYPE=SPRING1, ELSET=SPR_AX
  *ELEMENT, TYPE=SPRING1, ELSET=SPR_VERT
  *ELEMENT, TYPE=SPRING1, ELSET=SPR_LAT
  *ELEMENT, TYPE=SPRING1, ELSET=SPR_AX
  *ELEMENT, TYPE=SPRING1, ELSET=SPR_VERT
  *ELEMENT, TYPE=SPRING1, ELSET=SPR_LAT
  *ELEMENT, TYPE=SPRING1, ELSET=SPR_AX
  *ELEMENT, TYPE=SPRING1, ELSET=SPR_VERT
  *ELEMENT, TYPE=SPRING1, ELSET=SPR_LAT
  *ELEMENT, TYPE=SPRING1, ELSET=SPR_AX
  *ELEMENT, TYPE=SPRING1, ELSET=SPR_VERT
  *ELEMENT, TYPE=SPRING1, ELSET=SPR_LAT
  *ELEMENT, TYPE=SPRING1, ELSET=SPR_AX
  *ELEMENT, TYPE=SPRING1, ELSET=SPR_VERT
  *ELEMENT, TYPE=SPRING1, ELSET=SPR_LAT
  *ELEMENT, TYPE=SPRING1, ELSET=SPR_AX
  *ELEMENT, TYPE=SPRING1, ELSET=SPR_VERT
  *ELEMENT, TYPE=SPRING1, ELSET=SPR_LAT
  *ELEMENT, TYPE=SPRING1, ELSET=SPR_AX
  *ELEMENT, TYPE=SPRING1, ELSET=SPR_VERT
  *ELEMENT, TYPE=SPRING1, ELSET=SPR_LAT
  *ELEMENT, TYPE=SPRING1, ELSET=SPR_AX
  *ELEMENT, TYPE=SPRING1, ELSET=SPR_VERT
  *ELEMENT, TYPE=SPRING1, ELSET=SPR_LAT
  *ELEMENT, TYPE=SPRING1, ELSET=SPR_AX
  *ELEMENT, TYPE=SPRING1, ELSET=SPR_VERT
  *ELEMENT, TYPE=SPRING1, ELSET=SPR_LAT
  *ELEMENT, TYPE=SPRING1, ELSET=SPR_AX
  *ELEMENT, TYPE=SPRING1, ELSET=SPR_VERT
  *ELEMENT, TYPE=SPRING1, ELSET=SPR_LAT
  *ELEMENT, TYPE=SPRING1, ELSET=SPR_AX
  *ELEMENT, TYPE=SPRING1, ELSET=SPR_VERT
  *ELEMENT, TYPE=SPRING1, ELSET=SPR_LAT
  *ELEMENT, TYPE=SPRING1, ELSET=SPR_AX
  *ELEMENT, TYPE=SPRING1, ELSET=SPR_VERT
  *ELEMENT, TYPE=SPRING1, ELSET=SPR_LAT
  *ELEMENT, TYPE=SPRING1, ELSET=SPR_AX
  *ELEMENT, TYPE=SPRING1, ELSET=SPR_VERT
  *ELEMENT, TYPE=SPRING1, ELSET=SPR_LAT
  *ELEMENT, TYPE=SPRING1, ELSET=SPR_AX
  *ELEMENT, TYPE=SPRING1, ELSET=SPR_VERT
  *ELEMENT, TYPE=SPRING1, ELSET=SPR_LAT
  *ELEMENT, TYPE=SPRING1, ELSET=SPR_AX
  *ELEMENT, TYPE=SPRING1, ELSET=SPR_VERT
  *ELEMENT, TYPE=SPRING1, ELSET=SPR_LAT
  *ELEMENT, TYPE=SPRING1, ELSET=SPR_AX
  *ELEMENT, TYPE=SPRING1, ELSET=SPR_VERT
  *ELEMENT, TYPE=SPRING1, ELSET=SPR_LAT
  *ELEMENT, TYPE=SPRING1, ELSET=SPR_AX
  *ELEMENT, TYPE=SPRING1, ELSET=SPR_VERT
  *ELEMENT, TYPE=SPRING1, ELSET=SPR_LAT
  *ELEMENT, TYPE=SPRING1, ELSET=SPR_AX
  *ELEMENT, TYPE=SPRING1, ELSET=SPR_VERT
  *ELEMENT, TYPE=SPRING1, ELSET=SPR_LAT
  *ELEMENT, TYPE=SPRING1, ELSET=SPR_AX
  *ELEMENT, TYPE=SPRING1, ELSET=SPR_VERT
  *ELEMENT, TYPE=SPRING1, ELSET=SPR_LAT
  *ELEMENT, TYPE=SPRING1, ELSET=SPR_AX
  *ELEMENT, TYPE=SPRING1, ELSET=SPR_VERT
  *ELEMENT, TYPE=SPRING1, ELSET=SPR_LAT
  *ELEMENT, TYPE=SPRING1, ELSET=SPR_AX
  *ELEMENT, TYPE=SPRING1, ELSET=SPR_VERT
  *ELEMENT, TYPE=SPRING1, ELSET=SPR_LAT
  *ELEMENT, TYPE=SPRING1, ELSET=SPR_AX
  *ELEMENT, TYPE=SPRING1, ELSET=SPR_VERT
  *ELEMENT, TYPE=SPRING1, ELSET=SPR_LAT
  *ELEMENT, TYPE=SPRING1, ELSET=SPR_AX
  *ELEMENT, TYPE=SPRING1, ELSET=SPR_VERT
  *ELEMENT, TYPE=SPRING1, ELSET=SPR_LAT
  *ELEMENT, TYPE=SPRING1, ELSET=SPR_AX
  *ELEMENT, TYPE=SPRING1, ELSET=SPR_VERT
  *ELEMENT, TYPE=SPRING1, ELSET=SPR_LAT
  *ELEMENT, TYPE=SPRING1, ELSET=SPR_AX
  *ELEMENT, TYPE=SPRING1, ELSET=SPR_VERT
  *ELEMENT, TYPE=SPRING1, ELSET=SPR_LAT
  *ELEMENT, TYPE=SPRING1, ELSET=SPR_AX
  *ELEMENT, TYPE=SPRING1, ELSET=SPR_VERT
  *ELEMENT, TYPE=SPRING1, ELSET=SPR_LAT
  *ELEMENT, TYPE=SPRING1, ELSET=SPR_AX
  *ELEMENT, TYPE=SPRING1, ELSET=SPR_VERT
  *ELEMENT, TYPE=SPRING1, ELSET=SPR_LAT
  *ELEMENT, TYPE=SPRING1, ELSET=SPR_AX
  *ELEMENT, TYPE=SPRING1, ELSET=SPR_VERT
  *ELEMENT, TYPE=SPRING1, ELSET=SPR_LAT
  *ELEMENT, TYPE=SPRING1, ELSET=SPR_AX
  *ELEMENT, TYPE=SPRING1, ELSET=SPR_VERT
  *ELEMENT, TYPE=SPRING1, ELSET=SPR_LAT
  *ELEMENT, TYPE=SPRING1, ELSET=SPR_AX
  *ELEMENT, TYPE=SPRING1, ELSET=SPR_VERT
  *ELEMENT, TYPE=SPRING1, ELSET=SPR_LAT
  *ELEMENT, TYPE=SPRING1, ELSET=SPR_AX
  *ELEMENT, TYPE=SPRING1, ELSET=SPR_VERT
  *ELEMENT, TYPE=SPRING1, ELSET=SPR_LAT
  *ELEMENT, TYPE=SPRING1, ELSET=SPR_AX
  *ELEMENT, TYPE=SPRING1, ELSET=SPR_VERT
  *ELEMENT, TYPE=SPRING1, ELSET=SPR_LAT
  *ELEMENT, TYPE=SPRING1, ELSET=SPR_AX
  *ELEMENT, TYPE=SPRING1, ELSET=SPR_VERT
  *ELEMENT, TYPE=SPRING1, ELSET=SPR_LAT
  *ELEMENT, TYPE=SPRING1, ELSET=SPR_AX
  *ELEMENT, TYPE=SPRING1, ELSET=SPR_VERT
  *ELEMENT, TYPE=SPRING1, ELSET=SPR_LAT
  *ELEMENT, TYPE=SPRING1, ELSET=SPR_AX
  *ELEMENT, TYPE=SPRING1, ELSET=SPR_VERT
  *ELEMENT, TYPE=SPRING1, ELSET=SPR_LAT
  *ELEMENT, TYPE=SPRING1, ELSET=SPR_AX
  *ELEMENT, TYPE=SPRING1, ELSET=SPR_VERT
  *ELEMENT, TYPE=SPRING1, ELSET=SPR_LAT
  *ELEMENT, TYPE=SPRING1, ELSET=SPR_AX
  *ELEMENT, TYPE=SPRING1, ELSET=SPR_VERT
  *ELEMENT, TYPE=SPRING1, ELSET=SPR_LAT
  *ELEMENT, TYPE=SPRING1, ELSET=SPR_AX
  *ELEMENT, TYPE=SPRING1, ELSET=SPR_VERT
  *ELEMENT, TYPE=SPRING1, ELSET=SPR_LAT
  *ELEMENT, TYPE=SPRING1, ELSET=SPR_AX
  *ELEMENT, TYPE=SPRING1, ELSET=SPR_VERT
  *ELEMENT, TYPE=SPRING1, ELSET=SPR_LAT
  *ELEMENT, TYPE=SPRING1, ELSET=SPR_AX
  *ELEMENT, TYPE=SPRING1, ELSET=SPR_VERT
  *ELEMENT, TYPE=SPRING1, ELSET=SPR_LAT
  *ELEMENT, TYPE=SPRING1, ELSET=SPR_AX
  *ELEMENT, TYPE=SPRING1, ELSET=SPR_VERT
  *ELEMENT, TYPE=SPRING1, ELSET=SPR_LAT
  *ELEMENT, TYPE=SPRING1, ELSET=SPR_AX
  *ELEMENT, TYPE=SPRING1, ELSET=SPR_VERT
  *ELEMENT, TYPE=SPRING1, ELSET=SPR_LAT
  *ELEMENT, TYPE=SPRING1, ELSET=SPR_AX
  *ELEMENT, TYPE=SPRING1, ELSET=SPR_VERT
  *ELEMENT, TYPE=SPRING1, ELSET=SPR_LAT
  *ELEMENT, TYPE=SPRING1, ELSET=SPR_AX
  *ELEMENT, TYPE=SPRING1, ELSET=SPR_VERT
  *ELEMENT, TYPE=SPRING1, ELSET=SPR_LAT
  *ELEMENT, TYPE=SPRING1, ELSET=SPR_AX
  *ELEMENT, TYPE=SPRING1, ELSET=SPR_VERT
  *ELEMENT, TYPE=SPRING1, ELSET=SPR_LAT
  *ELEMENT, TYPE=SPRING1, ELSET=SPR_AX
  *ELEMENT, TYPE=SPRING1, ELSET=SPR_VERT
  *ELEMENT, TYPE=SPRING1, ELSET=SPR_LAT
  *ELEMENT, TYPE=SPRING1, ELSET=SPR_AX
  *ELEMENT, TYPE=SPRING1, ELSET=SPR_VERT
  *ELEMENT, TYPE=SPRING1, ELSET=SPR_LAT
  *ELEMENT, TYPE=SPRING1, ELSET=SPR_AX
  *ELEMENT, TYPE=SPRING1, ELSET=SPR_VERT
  *ELEMENT, TYPE=SPRING1, ELSET=SPR_LAT
  *ELEMENT, TYPE=SPRING1, ELSET=SPR_AX
  *ELEMENT, TYPE=SPRING1, ELSET=SPR_VERT
  *ELEMENT, TYPE=SPRING1, ELSET=SPR_LAT
  *ELEMENT, TYPE=SPRING1, ELSET=SPR_AX
  *ELEMENT, TYPE=SPRING1, ELSET=SPR_VERT
  *ELEMENT, TYPE=SPRING1, ELSET=SPR_LAT
  *ELEMENT, TYPE=SPRING1, ELSET=SPR_AX
  *ELEMENT, TYPE=SPRING1, ELSET=SPR_VERT
  *ELEMENT, TYPE=SPRING1, ELSET=SPR_LAT
  *ELEMENT, TYPE=SPRING1, ELSET=SPR_AX
  *ELEMENT, TYPE=SPRING1, ELSET=SPR_VERT
  *ELEMENT, TYPE=SPRING1, ELSET=SPR_LAT
  *ELEMENT, TYPE=SPRING1, ELSET=SPR_AX
  *ELEMENT, TYPE=SPRING1, ELSET=SPR_VERT
  *ELEMENT, TYPE=SPRING1, ELSET=SPR_LAT
  *ELEMENT, TYPE=SPRING1, ELSET=SPR_AX
  *ELEMENT, TYPE=SPRING1, ELSET=SPR_VERT
  *ELEMENT, TYPE=SPRING1, ELSET=SPR_LAT
  *ELEMENT, TYPE=SPRING1, ELSET=SPR_AX
  *ELEMENT, TYPE=SPRING1, ELSET=SPR_VERT
  *ELEMENT, TYPE=SPRING1, ELSET=SPR_LAT
  *ELEMENT, TYPE=SPRING1, ELSET=SPR_AX
  *ELEMENT, TYPE=SPRING1, ELSET=SPR_VERT
  *ELEMENT, TYPE=SPRING1, ELSET=SPR_LAT
  *ELEMENT, TYPE=SPRING1, ELSET=SPR_AX
  *ELEMENT, TYPE=SPRING1, ELSET=SPR_VERT
  *ELEMENT, TYPE=SPRING1, ELSET=SPR_LAT
  *ELEMENT, TYPE=SPRING1, ELSET=SPR_AX
  *ELEMENT, TYPE=SPRING1, ELSET=SPR_VERT
  *ELEMENT, TYPE=SPRING1, ELSET=SPR_LAT
  *ELEMENT, TYPE=SPRING1, ELSET=SPR_AX
  *ELEMENT, TYPE=SPRING1, ELSET=SPR_VERT
  *ELEMENT, TYPE=SPRING1, ELSET=SPR_LAT
  *ELEMENT, TYPE=SPRING1, ELSET=SPR_AX
  *ELEMENT, TYPE=SPRING1, ELSET=SPR_VERT
  *ELEMENT, TYPE=SPRING1, ELSET=SPR_LAT
  *ELEMENT, TYPE=SPRING1, ELSET=SPR_AX
  *ELEMENT, TYPE=SPRING1, ELSET=SPR_VERT
  *ELEMENT, TYPE=SPRING1, ELSET=SPR_LAT
  *ELEMENT, TYPE=SPRING1, ELSET=SPR_AX
  *ELEMENT, TYPE=SPRING1, ELSET=SPR_VERT
  *ELEMENT, TYPE=SPRING1, ELSET=SPR_LAT
  *ELEMENT, TYPE=SPRING1, ELSET=SPR_AX
  *ELEMENT, TYPE=SPRING1, ELSET=SPR_VERT
  *ELEMENT, TYPE=SPRING1, ELSET=SPR_LAT
  *ELEMENT, TYPE=SPRING1, ELSET=SPR_AX
  *ELEMENT, TYPE=SPRING1, ELSET=SPR_VERT
  *ELEMENT, TYPE=SPRING1, ELSET=SPR_LAT
  *ELEMENT, TYPE=SPRING1, ELSET=SPR_AX
  *ELEMENT, TYPE=SPRING1, ELSET=SPR_VERT
  *ELEMENT, TYPE=SPRING1, ELSET=SPR_LAT
  *ELEMENT, TYPE=SPRING1, ELSET=SPR_AX
  *ELEMENT, TYPE=SPRING1, ELSET=SPR_VERT
  *ELEMENT, TYPE=SPRING1, ELSET=SPR_LAT
  *ELEMENT, TYPE=SPRING1, ELSET=SPR_AX
  *ELEMENT, TYPE=SPRING1, ELSET=SPR_VERT
  *ELEMENT, TYPE=SPRING1, ELSET=SPR_LAT
  *ELEMENT, TYPE=SPRING1, ELSET=SPR_AX
  *ELEMENT, TYPE=SPRING1, ELSET=SPR_VERT
  *ELEMENT, TYPE=SPRING1, ELSET=SPR_LAT
  *ELEMENT, TYPE=SPRING1, ELSET=SPR_AX
  *ELEMENT, TYPE=SPRING1, ELSET=SPR_VERT
  *ELEMENT, TYPE=SPRING1, ELSET=SPR_LAT
  *ELEMENT, TYPE=SPRING1, ELSET=SPR_AX
  *ELEMENT, TYPE=SPRING1, ELSET=SPR_VERT
  *ELEMENT, TYPE=SPRING1, ELSET=SPR_LAT
  *ELEMENT, TYPE=SPRING1, ELSET=SPR_AX
  *ELEMENT, TYPE=SPRING1, ELSET=SPR_VERT
  *ELEMENT, TYPE=SPRING1, ELSET=SPR_LAT
  *ELEMENT, TYPE=SPRING1, ELSET=SPR_AX
  *ELEMENT, TYPE=SPRING1, ELSET=SPR_VERT
  *ELEMENT, TYPE=SPRING1, ELSET=SPR_LAT
  *ELEMENT, TYPE=SPRING1, ELSET=SPR_AX
  *ELEMENT, TYPE=SPRING1, ELSET=SPR_VERT
  *ELEMENT, TYPE=SPRING1, ELSET=SPR_LAT
  *ELEMENT, TYPE=SPRING1, ELSET=SPR_AX
  *ELEMENT, TYPE=SPRING1, ELSET=SPR_VERT
  *ELEMENT, TYPE=SPRING1, ELSET=SPR_LAT
  *ELEMENT, TYPE=SPRING1, ELSET=SPR_AX
  *ELEMENT, TYPE=SPRING1, ELSET=SPR_VERT
  *ELEMENT, TYPE=SPRING1, ELSET=SPR_LAT
  *ELEMENT, TYPE=SPRING1, ELSET=SPR_AX
  *ELEMENT, TYPE=SPRING1, ELSET=SPR_VERT
  *ELEMENT, TYPE=SPRING1, ELSET=SPR_LAT
  *ELEMENT, TYPE=SPRING1, ELSET=SPR_AX
  *ELEMENT, TYPE=SPRING1, ELSET=SPR_VERT
  *ELEMENT, TYPE=SPRING1, ELSET=SPR_LAT
  *ELEMENT, TYPE=SPRING1, ELSET=SPR_AX
  *ELEMENT, TYPE=SPRING1, ELSET=SPR_VERT
  *ELEMENT, TYPE=SPRING1, ELSET=SPR_LAT
  *ELEMENT, TYPE=SPRING1, ELSET=SPR_AX
  *ELEMENT, TYPE=SPRING1, ELSET=SPR_VERT
  *ELEMENT, TYPE=SPRING1, ELSET=SPR_LAT
  *ELEMENT, TYPE=SPRING1, ELSET=SPR_AX
  *ELEMENT, TYPE=SPRING1, ELSET=SPR_VERT
  *ELEMENT, TYPE=SPRING1, ELSET=SPR_LAT
  *ELEMENT, TYPE=SPRING1, ELSET=SPR_AX
  *ELEMENT, TYPE=SPRING1, ELSET=SPR_VERT
  *ELEMENT, TYPE=SPRING1, ELSET=SPR_LAT
  *ELEMENT, TYPE=SPRING1, ELSET=SPR_AX
  *ELEMENT, TYPE=SPRING1, ELSET=SPR_VERT
  *ELEMENT, TYPE=SPRING1, ELSET=SPR_LAT
  *ELEMENT, TYPE=SPRING1, ELSET=SPR_AX
  *ELEMENT, TYPE=SPRING1, ELSET=SPR_VERT
  *ELEMENT, TYPE=SPRING1, ELSET=SPR_LAT
  *ELEMENT, TYPE=SPRING1, ELSET=SPR_AX
  *ELEMENT, TYPE=SPRING1, ELSET=SPR_VERT
  *ELEMENT, TYPE=SPRING1, ELSET=SPR_LAT
  *ELEMENT, TYPE=SPRING1, ELSET=SPR_AX
  *ELEMENT, TYPE=SPRING1, ELSET=SPR_VERT
  *ELEMENT, TYPE=SPRING1, ELSET=SPR_LAT
  *ELEMENT, TYPE=SPRING1, ELSET=SPR_AX
  *ELEMENT, TYPE=SPRING1, ELSET=SPR_VERT
  *ELEMENT, TYPE=SPRING1, ELSET=SPR_LAT
  *ELEMENT, TYPE=SPRING1, ELSET=SPR_AX
  *ELEMENT, TYPE=SPRING1, ELSET=SPR_VERT
  *ELEMENT, TYPE=SPRING1, ELSET=SPR_LAT
  *ELEMENT, TYPE=SPRING1, ELSET=SPR_AX
  *ELEMENT, TYPE=SPRING1, ELSET=SPR_VERT
  *ELEMENT, TYPE=SPRING1, ELSET=SPR_LAT
  *ELEMENT, TYPE=SPRING1, ELSET=SPR_AX
  *ELEMENT, TYPE=SPRING1, ELSET=SPR_VERT
  *ELEMENT, TYPE=SPRING1, ELSET=SPR_LAT
  *ELEMENT, TYPE=SPRING1, ELSET=SPR_AX
  *ELEMENT, TYPE=SPRING1, ELSET=SPR_VERT
  *ELEMENT, TYPE=SPRING1, ELSET=SPR_LAT
  *ELEMENT, TYPE=SPRING1, ELSET=SPR_AX
  *ELEMENT, TYPE=SPRING1, ELSET=SPR_VERT
  *ELEMENT, TYPE=SPRING1, ELSET=SPR_LAT
  *ELEMENT, TYPE=SPRING1, ELSET=SPR_AX
  *ELEMENT, TYPE=SPRING1, ELSET=SPR_VERT
  *ELEMENT, TYPE=SPRING1, ELSET=SPR_LAT
  *ELEMENT, TYPE=SPRING1, ELSET=SPR_AX
  *ELEMENT, TYPE=SPRING1, ELSET=SPR_VERT
  *ELEMENT, TYPE=SPRING1, ELSET=SPR_LAT
  *ELEMENT, TYPE=SPRING1, ELSET=SPR_AX
  *ELEMENT, TYPE=SPRING1, ELSET=SPR_VERT
  *ELEMENT, TYPE=SPRING1, ELSET=SPR_LAT
  *ELEMENT, TYPE=SPRING1, ELSET=SPR_AX
  *ELEMENT, TYPE=SPRING1, ELSET=SPR_VERT
  *ELEMENT, TYPE=SPRING1, ELSET=SPR_LAT
  *ELEMENT, TYPE=SPRING1, ELSET=SPR_AX
  *ELEMENT, TYPE=SPRING1, ELSET=SPR_VERT
  *ELEMENT, TYPE=SPRING1, ELSET=SPR_LAT
  *ELEMENT, TYPE=SPRING1, ELSET=SPR_AX
  *ELEMENT, TYPE=SPRING1, ELSET=SPR_VERT
  *ELEMENT, TYPE=SPRING1, ELSET=SPR_LAT
  *ELEMENT, TYPE=SPRING1, ELSET=SPR_AX
  *ELEMENT, TYPE=SPRING1, ELSET=SPR_VERT
  *ELEMENT, TYPE=SPRING1, ELSET=SPR_LAT
  *ELEMENT, TYPE=SPRING1, ELSET=SPR_AX
  *ELEMENT, TYPE=SPRING1, ELSET=SPR_VERT
  *ELEMENT, TYPE=SPRING1, ELSET=SPR_LAT
  *ELEMENT, TYPE=SPRING1, ELSET=SPR_AX
  *ELEMENT, TYPE=SPRING1, ELSET=SPR_VERT
  *ELEMENT, TYPE=SPRING1, ELSET=SPR_LAT
  *ELEMENT, TYPE=SPRING1, ELSET=SPR_AX
  *ELEMENT, TYPE=SPRING1, ELSET=SPR_VERT
  *ELEMENT, TYPE=SPRING1, ELSET=SPR_LAT
  *ELEMENT, TYPE=SPRING1, ELSET=SPR_AX
  *ELEMENT, TYPE=SPRING1, ELSET=SPR_VERT
  *ELEMENT, TYPE=SPRING1, ELSET=SPR_LAT
  *ELEMENT, TYPE=SPRING1, ELSET=SPR_AX
  *ELEMENT, TYPE=SPRING1, ELSET=SPR_VERT
  *ELEMENT, TYPE=SPRING1, ELSET=SPR_LAT
  *ELEMENT, TYPE=SPRING1, ELSET=SPR_AX
  *ELEMENT, TYPE=SPRING1, ELSET=SPR_VERT
  *ELEMENT, TYPE=SPRING1, ELSET=SPR_LAT
  *ELEMENT, TYPE=SPRING1, ELSET=SPR_AX
  *ELEMENT, TYPE=SPRING1, ELSET=SPR_VERT
  *ELEMENT, TYPE=SPRING1, ELSET=SPR_LAT
  *ELEMENT, TYPE=SPRING1, ELSET=SPR_AX
  *ELEMENT, TYPE=SPRING1, ELSET=SPR_VERT
  *ELEMENT, TYPE=SPRING1, ELSET=SPR_LAT
  *ELEMENT, TYPE=SPRING1, ELSET=SPR_AX
  *ELEMENT, TYPE=SPRING1, ELSET=SPR_VERT
  *ELEMENT, TYPE=SPRING1, ELSET=SPR_LAT
  *ELEMENT, TYPE=SPRING1, ELSET=SPR_AX
  *ELEMENT, TYPE=SPRING1, ELSET=SPR_VERT
  *ELEMENT, TYPE=SPRING1, ELSET=SPR_LAT
  *ELEMENT, TYPE=SPRING1, ELSET=SPR_AX
  *ELEMENT, TYPE=SPRING1, ELSET=SPR_VERT
  *ELEMENT, TYPE=SPRING1, ELSET=SPR_LAT
  *ELEMENT, TYPE=SPRING1, ELSET=SPR_AX
  *ELEMENT, TYPE=SPRING1, ELSET=SPR_VERT
  *ELEMENT, TYPE=SPRING1, ELSET=SPR_LAT
  *ELEMENT, TYPE=SPRING1, ELSET=SPR_AX
  *ELEMENT, TYPE=SPRING1, ELSET=SPR_VERT
  *ELEMENT, TYPE=SPRING1, ELSET=SPR_LAT
  *ELEMENT, TYPE=SPRING1, ELSET=SPR_AX
  *ELEMENT, TYPE=SPRING1, ELSET=SPR_VERT
  *ELEMENT, TYPE=SPRING1, ELSET=SPR_LAT
  *ELEMENT, TYPE=SPRING1, ELSET=SPR_AX
  *ELEMENT, TYPE=SPRING1, ELSET=SPR_VERT
  *ELEMENT, TYPE=SPRING1, ELSET=SPR_LAT
  *ELEMENT, TYPE=SPRING1, ELSET=SPR_AX
  *ELEMENT, TYPE=SPRING1, ELSET=SPR_VERT
  *ELEMENT, TYPE=SPRING1, ELSET=SPR_LAT
  *ELEMENT, TYPE=SPRING1, ELSET=SPR_AX
  *ELEMENT, TYPE=SPRING1, ELSET=SPR_VERT
  *ELEMENT, TYPE=SPRING1, ELSET=SPR_LAT
  *ELEMENT, TYPE=SPRING1, ELSET=SPR_AX
  *ELEMENT, TYPE=SPRING1, ELSET=SPR_VERT
  *ELEMENT, TYPE=SPRING1, ELSET=SPR_LAT
  *ELEMENT, TYPE=SPRING1, ELSET=SPR_AX
  *ELEMENT, TYPE=SPRING1, ELSET=SPR_VERT
  *ELEMENT, TYPE=SPRING1, ELSET=SPR_LAT
  *ELEMENT, TYPE=SPRING1, ELSET=SPR_AX
  *ELEMENT, TYPE=SPRING1, ELSET=SPR_VERT
  *ELEMENT, TYPE=SPRING1, ELSET=SPR_LAT
  *ELEMENT, TYPE=SPRING1, ELSET=SPR_AX
  *ELEMENT, TYPE=SPRING1, ELSET=SPR_VERT
  *ELEMENT, TYPE=SPRING1, ELSET=SPR_LAT
  *ELEMENT, TYPE=SPRING1, ELSET=SPR_AX
  *ELEMENT, TYPE=SPRING1, ELSET=SPR_VERT
  *ELEMENT, TYPE=SPRING1, ELSET=SPR_LAT
  *ELEMENT, TYPE=SPRING1, ELSET=SPR_AX
  *ELEMENT, TYPE=SPRING1, ELSET=SPR_VERT
  *ELEMENT, TYPE=SPRING1, ELSET=SPR_LAT
  *ELEMENT, TYPE=SPRING1, ELSET=SPR_AX
  *ELEMENT, TYPE=SPRING1, ELSET=SPR_VERT
  *ELEMENT, TYPE=SPRING1, ELSET=SPR_LAT
  *ELEMENT, TYPE=SPRING1, ELSET=SPR_AX
  *ELEMENT, TYPE=SPRING1, ELSET=SPR_VERT
  *ELEMENT, TYPE=SPRING1, ELSET=SPR_LAT
  *ELEMENT, TYPE=SPRING1, ELSET=SPR_AX
  *ELEMENT, TYPE=SPRING1, ELSET=SPR_VERT
  *ELEMENT, TYPE=SPRING1, ELSET=SPR_LAT
  *ELEMENT, TYPE=SPRING1, ELSET=SPR_AX
  *ELEMENT, TYPE=SPRING1, ELSET=SPR_VERT
  *ELEMENT, TYPE=SPRING1, ELSET=SPR_LAT
  *ELEMENT, TYPE=SPRING1, ELSET=SPR_AX
  *ELEMENT, TYPE=SPRING1, ELSET=SPR_VERT
  *ELEMENT, TYPE=SPRING1, ELSET=SPR_LAT
  *ELEMENT, TYPE=SPRING1, ELSET=SPR_AX
  *ELEMENT, TYPE=SPRING1, ELSET=SPR_VERT
  *ELEMENT, TYPE=SPRING1, ELSET=SPR_LAT
  *ELEMENT, TYPE=SPRING1, ELSET=SPR_AX
  *ELEMENT, TYPE=SPRING1, ELSET=SPR_VERT
  *ELEMENT, TYPE=SPRING1, ELSET=SPR_LAT
  *ELEMENT, TYPE=SPRING1, ELSET=SPR_AX
  *ELEMENT, TYPE=SPRING1, ELSET=SPR_VERT
  *ELEMENT, TYPE=SPRING1, ELSET=SPR_LAT
  *ELEMENT, TYPE=SPRING1, ELSET=SPR_AX
  *ELEMENT, TYPE=SPRING1, ELSET=SPR_VERT
  *ELEMENT, TYPE=SPRING1, ELSET=SPR_LAT
  *ELEMENT, TYPE=SPRING1, ELSET=SPR_AX
  *ELEMENT, TYPE=SPRING1, ELSET=SPR_VERT
  *ELEMENT, TYPE=SPRING1, ELSET=SPR_LAT
  *ELEMENT, TYPE=SPRING1, ELSET=SPR_AX
  *ELEMENT, TYPE=SPRING1, ELSET=SPR_VERT
  *ELEMENT, TYPE=SPRING1, ELSET=SPR_LAT
  *ELEMENT, TYPE=SPRING1, ELSET=SPR_AX
  *ELEMENT, TYPE=SPRING1, ELSET=SPR_VERT
  *ELEMENT, TYPE=SPRING1, ELSET=SPR_LAT
  *ELEMENT, TYPE=SPRING1, ELSET=SPR_AX
  *ELEMENT, TYPE=SPRING1, ELSET=SPR_VERT
  *ELEMENT, TYPE=SPRING1, ELSET=SPR_LAT
  *ELEMENT, TYPE=SPRING1, ELSET=SPR_AX
  *ELEMENT, TYPE=SPRING1, ELSET=SPR_VERT
  *ELEMENT, TYPE=SPRING1, ELSET=SPR_LAT
  *ELEMENT, TYPE=SPRING1, ELSET=SPR_AX
  *ELEMENT, TYPE=SPRING1, ELSET=SPR_VERT
  *ELEMENT, TYPE=SPRING1, ELSET=SPR_LAT
  *ELEMENT, TYPE=SPRING1, ELSET=SPR_AX
  *ELEMENT, TYPE=SPRING1, ELSET=SPR_VERT
  *ELEMENT, TYPE=SPRING1, ELSET=SPR_LAT
  *ELEMENT, TYPE=SPRING1, ELSET=SPR_AX
  *ELEMENT, TYPE=SPRING1, ELSET=SPR_VERT
  *ELEMENT, TYPE=SPRING1, ELSET=SPR_LAT
  *ELEMENT, TYPE=SPRING1, ELSET=SPR_AX
  *ELEMENT, TYPE=SPRING1, ELSET=SPR_VERT
  *ELEMENT, TYPE=SPRING1, ELSET=SPR_LAT
  *ELEMENT, TYPE=SPRING1, ELSET=SPR_AX
  *ELEMENT, TYPE=SPRING1, ELSET=SPR_VERT
  *ELEMENT, TYPE=SPRING1, ELSET=SPR_LAT
  *ELEMENT, TYPE=SPRING1, ELSET=SPR_AX
  *ELEMENT, TYPE=SPRING1, ELSET=SPR_VERT
  *ELEMENT, TYPE=SPRING1, ELSET=SPR_LAT
  *ELEMENT, TYPE=SPRING1, ELSET=SPR_AX
  *ELEMENT, TYPE=SPRING1, ELSET=SPR_VERT
  *ELEMENT, TYPE=SPRING1, ELSET=SPR_LAT
  *ELEMENT, TYPE=SPRING1, ELSET=SPR_AX
  *ELEMENT, TYPE=SPRING1, ELSET=SPR_VERT
  *ELEMENT, TYPE=SPRING1, ELSET=SPR_LAT
  *ELEMENT, TYPE=SPRING1, ELSET=SPR_AX
  *ELEMENT, TYPE=SPRING1, ELSET=SPR_VERT
  *ELEMENT, TYPE=SPRING1, ELSET=SPR_LAT
  *ELEMENT, TYPE=SPRING1, ELSET=SPR_AX
  *ELEMENT, TYPE=SPRING1, ELSET=SPR_VERT
  *ELEMENT, TYPE=SPRING1, ELSET=SPR_LAT
  *ELEMENT, TYPE=SPRING1, ELSET=SPR_AX
  *ELEMENT, TYPE=SPRING1, ELSET=SPR_VERT
  *ELEMENT, TYPE=SPRING1, ELSET=SPR_LAT
  *ELEMENT, TYPE=SPRING1, ELSET=SPR_AX
  *ELEMENT, TYPE=SPRING1, ELSET=SPR_VERT
  *ELEMENT, TYPE=SPRING1, ELSET=SPR_LAT
  *ELEMENT, TYPE=SPRING1, ELSET=SPR_AX
  *ELEMENT, TYPE=SPRING1, ELSET=SPR_VERT
  *ELEMENT, TYPE=SPRING1, ELSET=SPR_LAT
  *ELEMENT, TYPE=SPRING1, ELSET=SPR_AX
  *ELEMENT, TYPE=SPRING1, ELSET=SPR_VERT
  *ELEMENT, TYPE=SPRING1, ELSET=SPR_LAT
  *ELEMENT, TYPE=SPRING1, ELSET=SPR_AX
  *ELEMENT, TYPE=SPRING1, ELSET=SPR_VERT
  *ELEMENT, TYPE=SPRING1, ELSET=SPR_LAT
  *ELEMENT, TYPE=SPRING1, ELSET=SPR_AX
  *ELEMENT, TYPE=SPRING1, ELSET=SPR_VERT
  *ELEMENT, TYPE=SPRING1, ELSET=SPR_LAT
  *ELEMENT, TYPE=SPRING1, ELSET=SPR_AX
  *ELEMENT, TYPE=SPRING1, ELSET=SPR_VERT
  *ELEMENT, TYPE=SPRING1, ELSET=SPR_LAT
  *ELEMENT, TYPE=SPRING1, ELSET=SPR_AX
  *ELEMENT, TYPE=SPRING1, ELSET=SPR_VERT
  *ELEMENT, TYPE=SPRING1, ELSET=SPR_LAT
  *ELEMENT, TYPE=SPRING1, ELSET=SPR_AX
  *ELEMENT, TYPE=SPRING1, ELSET=SPR_VERT
  *ELEMENT, TYPE=SPRING1, ELSET=SPR_LAT
  *ELEMENT, TYPE=SPRING1, ELSET=SPR_AX
  *ELEMENT, TYPE=SPRING1, ELSET=SPR_VERT
  *ELEMENT, TYPE=SPRING1, ELSET=SPR_LAT
  *ELEMENT, TYPE=SPRING1, ELSET=SPR_AX
  *ELEMENT, TYPE=SPRING1, ELSET=SPR_VERT
  *ELEMENT, TYPE=SPRING1, ELSET=SPR_LAT
  *ELEMENT, TYPE=SPRING1, ELSET=SPR_AX
  *ELEMENT, TYPE=SPRING1, ELSET=SPR_VERT
  *ELEMENT, TYPE=SPRING1, ELSET=SPR_LAT
  *ELEMENT, TYPE=SPRING1, ELSET=SPR_AX
  *ELEMENT, TYPE=SPRING1, ELSET=SPR_VERT
  *ELEMENT, TYPE=SPRING1, ELSET=SPR_LAT
  *ELEMENT, TYPE=SPRING1, ELSET=SPR_AX
  *ELEMENT, TYPE=SPRING1, ELSET=SPR_VERT
  *ELEMENT, TYPE=SPRING1, ELSET=SPR_LAT
  *ELEMENT, TYPE=SPRING1, ELSET=SPR_AX
  *ELEMENT, TYPE=SPRING1, ELSET=SPR_VERT
  *ELEMENT, TYPE=SPRING1, ELSET=SPR_LAT
  *ELEMENT, TYPE=SPRING1, ELSET=SPR_AX
  *ELEMENT, TYPE=SPRING1, ELSET=SPR_VERT
  *ELEMENT, TYPE=SPRING1, ELSET=SPR_LAT
  *ELEMENT, TYPE=SPRING1, ELSET=SPR_AX
  *ELEMENT, TYPE=SPRING1, ELSET=SPR_VERT
  *ELEMENT, TYPE=SPRING1, ELSET=SPR_LAT
  *ELEMENT, TYPE=SPRING1, ELSET=SPR_AX
  *ELEMENT, TYPE=SPRING1, ELSET=SPR_VERT
  *ELEMENT, TYPE=SPRING1, ELSET=SPR_LAT
  *ELEMENT, TYPE=SPRING1, ELSET=SPR_AX
  *ELEMENT, TYPE=SPRING1, ELSET=SPR_VERT
  *ELEMENT, TYPE=SPRING1, ELSET=SPR_LAT
  *ELEMENT, TYPE=SPRING1, ELSET=SPR_AX
  *ELEMENT, TYPE=SPRING1, ELSET=SPR_VERT
  *ELEMENT, TYPE=SPRING1, ELSET=SPR_LAT
  *ELEMENT, TYPE=SPRING1, ELSET=SPR_AX
  *ELEMENT, TYPE=SPRING1, ELSET=SPR_VERT
  *ELEMENT, TYPE=SPRING1, ELSET=SPR_LAT
  *ELEMENT, TYPE=SPRING1, ELSET=SPR_AX
  *ELEMENT, TYPE=SPRING1, ELSET=SPR_VERT
  *ELEMENT, TYPE=SPRING1, ELSET=SPR_LAT
  *ELEMENT, TYPE=SPRING1, ELSET=SPR_AX
  *ELEMENT, TYPE=SPRING1, ELSET=SPR_VERT
  *ELEMENT, TYPE=SPRING1, ELSET=SPR_LAT
  *ELEMENT, TYPE=SPRING1, ELSET=SPR_AX
  *ELEMENT, TYPE=SPRING1, ELSET=SPR_VERT
  *ELEMENT, TYPE=SPRING1, ELSET=SPR_LAT
  *ELEMENT, TYPE=SPRING1, ELSET=SPR_AX
  *ELEMENT, TYPE=SPRING1, ELSET=SPR_VERT
  *ELEMENT, TYPE=SPRING1, ELSET=SPR_LAT
  *ELEMENT, TYPE=SPRING1, ELSET=SPR_AX
  *ELEMENT, TYPE=SPRING1, ELSET=SPR_VERT
  *ELEMENT, TYPE=SPRING1, ELSET=SPR_LAT
  *ELEMENT, TYPE=SPRING1, ELSET=SPR_AX
  *ELEMENT, TYPE=SPRING1, ELSET=SPR_VERT
  *ELEMENT, TYPE=SPRING1, ELSET=SPR_LAT
  *ELEMENT, TYPE=SPRING1, ELSET=SPR_AX
  *ELEMENT, TYPE=SPRING1, ELSET=SPR_VERT
  *ELEMENT, TYPE=SPRING1, ELSET=SPR_LAT
  *ELEMENT, TYPE=SPRING1, ELSET=SPR_AX
  *ELEMENT, TYPE=SPRING1, ELSET=SPR_VERT
  *ELEMENT, TYPE=SPRING1, ELSET=SPR_LAT
  *ELEMENT, TYPE=SPRING1, ELSET=SPR_AX
  *ELEMENT, TYPE=SPRING1, ELSET=SPR_VERT
  *ELEMENT, TYPE=SPRING1, ELSET=SPR_LAT
  *ELEMENT, TYPE=SPRING1, ELSET=SPR_AX
  *ELEMENT, TYPE=SPRING1, ELSET=SPR_VERT
  *ELEMENT, TYPE=SPRING1, ELSET=SPR_LAT
  *ELEMENT, TYPE=SPRING1, ELSET=SPR_AX
  *ELEMENT, TYPE=SPRING1, ELSET=SPR_VERT
  *ELEMENT, TYPE=SPRING1, ELSET=SPR_LAT
  *ELEMENT, TYPE=SPRING1, ELSET=SPR_AX
  *ELEMENT, TYPE=SPRING1, ELSET=SPR_VERT
  *ELEMENT, TYPE=SPRING1, ELSET=SPR_LAT
  *ELEMENT, TYPE=SPRING1, ELSET=SPR_AX
  *ELEMENT, TYPE=SPRING1, ELSET=SPR_VERT
  *ELEMENT, TYPE=SPRING1, ELSET=SPR_LAT
  *ELEMENT, TYPE=SPRING1, ELSET=SPR_AX
  *ELEMENT, TYPE=SPRING1, ELSET=SPR_VERT
  *ELEMENT, TYPE=SPRING1, ELSET=SPR_LAT
  *ELEMENT, TYPE=SPRING1, ELSET=SPR_AX
  *ELEMENT, TYPE=SPRING1, ELSET=SPR_VERT
  *ELEMENT, TYPE=SPRING1, ELSET=SPR_LAT
  *ELEMENT, TYPE=SPRING1, ELSET=SPR_AX
  *ELEMENT, TYPE=SPRING1, ELSET=SPR_VERT
  *ELEMENT, TYPE=SPRING1, ELSET=SPR_LAT
  *ELEMENT, TYPE=SPRING1, ELSET=SPR_AX
  *ELEMENT, TYPE=SPRING1, ELSET=SPR_VERT
  *ELEMENT, TYPE=SPRING1, ELSET=SPR_LAT
  *ELEMENT, TYPE=SPRING1, ELSET=SPR_AX
  *ELEMENT, TYPE=SPRING1, ELSET=SPR_VERT
  *ELEMENT, TYPE=SPRING1, ELSET=SPR_LAT
  *ELEMENT, TYPE=SPRING1, ELSET=SPR_AX
  *ELEMENT, TYPE=SPRING1, ELSET=SPR_VERT
  *ELEMENT, TYPE=SPRING1, ELSET=SPR_LAT
  *ELEMENT, TYPE=SPRING1, ELSET=SPR_AX
  *ELEMENT, TYPE=SPRING1, ELSET=SPR_VERT
  *ELEMENT, TYPE=SPRING1, ELSET=SPR_LAT
  *ELEMENT, TYPE=SPRING1, ELSET=SPR_AX
  *ELEMENT, TYPE=SPRING1, ELSET=SPR_VERT
  *ELEMENT, TYPE=SPRING1, ELSET=SPR_LAT
  *ELEMENT, TYPE=SPRING1, ELSET=SPR_AX
  *ELEMENT, TYPE=SPRING1, ELSET=SPR_VERT
  *ELEMENT, TYPE=SPRING1, ELSET=SPR_LAT
  *ELEMENT, TYPE=SPRING1, ELSET=SPR_AX
  *ELEMENT, TYPE=SPRING1, ELSET=SPR_VERT
  *ELEMENT, TYPE=SPRING1, ELSET=SPR_LAT
  *ELEMENT, TYPE=SPRING1, ELSET=SPR_AX
  *ELEMENT, TYPE=SPRING1, ELSET=SPR_VERT
  *ELEMENT, TYPE=SPRING1, ELSET=SPR_LAT
  *ELEMENT, TYPE=SPRING1, ELSET=SPR_AX
  *ELEMENT, TYPE=SPRING1, ELSET=SPR_VERT
  *ELEMENT, TYPE=SPRING1, ELSET=SPR_LAT
  *ELEMENT, TYPE=SPRING1, ELSET=SPR_AX
  *ELEMENT, TYPE=SPRING1, ELSET=SPR_VERT
  *ELEMENT, TYPE=SPRING1, ELSET=SPR_LAT
  *ELEMENT, TYPE=SPRING1, ELSET=SPR_AX
  *ELEMENT, TYPE=SPRING1, ELSET=SPR_VERT
  *ELEMENT, TYPE=SPRING1, ELSET=SPR_LAT
  *ELEMENT, TYPE=SPRING1, ELSET=SPR_AX
  *ELEMENT, TYPE=SPRING1, ELSET=SPR_VERT
  *ELEMENT, TYPE=SPRING1, ELSET=SPR_LAT
  *ELEMENT, TYPE=SPRING1, ELSET=SPR_AX
  *ELEMENT, TYPE=SPRING1, ELSET=SPR_VERT
  *ELEMENT, TYPE=SPRING1, ELSET=SPR_LAT
  *ELEMENT, TYPE=SPRING1, ELSET=SPR_AX
  *ELEMENT, TYPE=SPRING1, ELSET=SPR_VERT
  *ELEMENT, TYPE=SPRING1, ELSET=SPR_LAT
  *ELEMENT, TYPE=SPRING1, ELSET=SPR_AX
  *ELEMENT, TYPE=SPRING1, ELSET=SPR_VERT
  *ELEMENT, TYPE=SPRING1, ELSET=SPR_LAT
  *ELEMENT, TYPE=SPRING1, ELSET=SPR_AX
  *ELEMENT, TYPE=SPRING1, ELSET=SPR_VERT
  *ELEMENT, TYPE=SPRING1, ELSET=SPR_LAT
  *ELEMENT, TYPE=SPRING1, ELSET=SPR_AX
  *ELEMENT, TYPE=SPRING1, ELSET=SPR_VERT
  *ELEMENT, TYPE=SPRING1, ELSET=SPR_LAT
  *ELEMENT, TYPE=SPRING1, ELSET=SPR_AX
  *ELEMENT, TYPE=SPRING1, ELSET=SPR_VERT
  *ELEMENT, TYPE=SPRING1, ELSET=SPR_LAT
  *ELEMENT, TYPE=SPRING1, ELSET=SPR_AX
  *ELEMENT, TYPE=SPRING1, ELSET=SPR_VERT
  *ELEMENT, TYPE=SPRING1, ELSET=SPR_LAT
  *ELEMENT, TYPE=SPRING1, ELSET=SPR_AX
  *ELEMENT, TYPE=SPRING1, ELSET=SPR_VERT
  *ELEMENT, TYPE=SPRING1, ELSET=SPR_LAT
  *ELEMENT, TYPE=SPRING1, ELSET=SPR_AX
  *ELEMENT, TYPE=SPRING1, ELSET=SPR_VERT
  *ELEMENT, TYPE=SPRING1, ELSET=SPR_LAT
  *ELEMENT, TYPE=SPRING1, ELSET=SPR_AX
  *ELEMENT, TYPE=SPRING1, ELSET=SPR_VERT
  *ELEMENT, TYPE=SPRING1, ELSET=SPR_LAT
  *ELEMENT, TYPE=SPRING1, ELSET=SPR_AX
  *ELEMENT, TYPE=SPRING1, ELSET=SPR_VERT
  *ELEMENT, TYPE=SPRING1, ELSET=SPR_LAT
  *ELEMENT, TYPE=SPRING1, ELSET=SPR_AX
  *ELEMENT, TYPE=SPRING1, ELSET=SPR_VERT
  *ELEMENT, TYPE=SPRING1, ELSET=SPR_LAT
  *ELEMENT, TYPE=SPRING1, ELSET=SPR_AX
  *ELEMENT, TYPE=SPRING1, ELSET=SPR_VERT
  *ELEMENT, TYPE=SPRING1, ELSET=SPR_LAT
  *ELEMENT, TYPE=SPRING1, ELSET=SPR_AX
  *ELEMENT, TYPE=SPRING1, ELSET=SPR_VERT
  *ELEMENT, TYPE=SPRING1, ELSET=SPR_LAT
  *ELEMENT, TYPE=SPRING1, ELSET=SPR_AX
  *ELEMENT, TYPE=SPRING1, ELSET=SPR_VERT
  *ELEMENT, TYPE=SPRING1, ELSET=SPR_LAT
  *ELEMENT, TYPE=SPRING1, ELSET=SPR_AX
  *ELEMENT, TYPE=SPRING1, ELSET=SPR_VERT
  *ELEMENT, TYPE=SPRING1, ELSET=SPR_LAT
  *ELEMENT, TYPE=SPRING1, ELSET=SPR_AX
  *ELEMENT, TYPE=SPRING1, ELSET=SPR_VERT
  *ELEMENT, TYPE=SPRING1, ELSET=SPR_LAT
  *ELEMENT, TYPE=SPRING1, ELSET=SPR_AX
  *ELEMENT, TYPE=SPRING1, ELSET=SPR_VERT
  *ELEMENT, TYPE=SPRING1, ELSET=SPR_LAT
  *ELEMENT, TYPE=SPRING1, ELSET=SPR_AX
  *ELEMENT, TYPE=SPRING1, ELSET=SPR_VERT
  *ELEMENT, TYPE=SPRING1, ELSET=SPR_LAT
  *ELEMENT, TYPE=SPRING1, ELSET=SPR_AX
  *ELEMENT, TYPE=SPRING1, ELSET=SPR_VERT
  *ELEMENT, TYPE=SPRING1, ELSET=SPR_LAT
  *ELEMENT, TYPE=SPRING1, ELSET=SPR_AX
  *ELEMENT, TYPE=SPRING1, ELSET=SPR_VERT
  *ELEMENT, TYPE=SPRING1, ELSET=SPR_LAT
  *ELEMENT, TYPE=SPRING1, ELSET=SPR_AX
  *ELEMENT, TYPE=SPRING1, ELSET=SPR_VERT
  *ELEMENT, TYPE=SPRING1, ELSET=SPR_LAT
  *ELEMENT, TYPE=SPRING1, ELSET=SPR_AX
  *ELEMENT, TYPE=SPRING1, ELSET=SPR_VERT
  *ELEMENT, TYPE=SPRING1, ELSET=SPR_LAT
  *ELEMENT, TYPE=SPRING1, ELSET=SPR_AX
  *ELEMENT, TYPE=SPRING1, ELSET=SPR_VERT
  *ELEMENT, TYPE=SPRING1, ELSET=SPR_LAT
  *ELEMENT, TYPE=SPRING1, ELSET=SPR_AX
  *ELEMENT, TYPE=SPRING1, ELSET=SPR_VERT
  *ELEMENT, TYPE=SPRING1, ELSET=SPR_LAT
  *ELEMENT, TYPE=SPRING1, ELSET=SPR_AX
  *ELEMENT, TYPE=SPRING1, ELSET=SPR_VERT
  *ELEMENT, TYPE=SPRING1, ELSET=SPR_LAT
  *ELEMENT, TYPE=SPRING1, ELSET=SPR_AX
  *ELEMENT, TYPE=SPRING1, ELSET=SPR_VERT
  *ELEMENT, TYPE=SPRING1, ELSET=SPR_LAT
  *ELEMENT, TYPE=SPRING1, ELSET=SPR_AX
  *ELEMENT, TYPE=SPRING1, ELSET=SPR_VERT
  *ELEMENT, TYPE=SPRING1, ELSET=SPR_LAT
  *MATERIAL, NAME=STEEL
  *ELASTIC
  *DENSITY
  *SPRING, ELSET=SPR_AX
  *SPRING, ELSET=SPR_VERT
  *SPRING, ELSET=SPR_LAT
  *INITIAL CONDITIONS, TYPE=STRESS
  *INITIAL CONDITIONS, TYPE=STRESS
  *BOUNDARY, OP=NEW
  *BEAM SECTION,SECT=PIPE,ELSET=PIPE,MATERIAL=STEEL
  *SPRING, ELSET=SPR_AX
  *SPRING, ELSET=SPR_VERT
  *SPRING, ELSET=SPR_LAT
  *OUTPUT, FIELD, FREQ=10, VARIABLE=PRESELECT
  *OUTPUT, HISTORY, FREQ=0, VARIABLE=PRESELECT
  *OUTPUT, FIELD, VARIABLE=ALL, FREQUENCY=999
  *ELEMENT OUTPUT, ELSET=PIPE
  *INITIAL CONDITIONS, TYPE=STRESS
  *OUTPUT, FIELD, FREQ=10, VARIABLE=PRESELECT
  *OUTPUT, HISTORY, FREQ=0, VARIABLE=PRESELECT
  *OUTPUT, FIELD, VARIABLE=ALL, FREQUENCY=999
  *ELEMENT OUTPUT, ELSET=PIPE
  *INITIAL CONDITIONS, TYPE=STRESS
  *INITIAL CONDITIONS, TYPE=STRESS
  *OUTPUT, FIELD, FREQ=10, VARIABLE=PRESELECT
  *OUTPUT, HISTORY, FREQ=0, VARIABLE=PRESELECT
  *OUTPUT, FIELD, VARIABLE=ALL, FREQUENCY=999
  *ELEMENT OUTPUT, ELSET=PIPE
  *AQUA
  *AQUA

 ***WARNING: FLUID VELOCITIES HAVE NOT BEEN SPECIFIED IN THE *AQUA OPTION. THEY 
             ARE SET TO ZERO.
  *STEP, INC=100, NLGEOM
  *OUTPUT, FIELD, FREQ=10, VARIABLE=PRESELECT
  *OUTPUT, HISTORY, FREQ=0, VARIABLE=PRESELECT
  *STEP, NLGEOM, UNSYMM=YES, INC=2000
  *FREQUENCY, EIGENSOLVER=LANCZOS
  *OUTPUT, FIELD, VARIABLE=ALL, FREQUENCY=999
  *STEP, INC=100, NLGEOM
  *STEP, NLGEOM, UNSYMM=YES, INC=2000
  *STEP, INC=100, NLGEOM
  INITIAL SET UP                                                                  
  *STATIC
  *CONTROLS, ANALYSIS=DISCONTINUOUS
  *BOUNDARY, OP=NEW
  *OUTPUT, FIELD, FREQ=10, VARIABLE=PRESELECT
  *ELEMENT OUTPUT, ELSET=PIPE
  *NODE OUTPUT, NSET=PIPE
  *OUTPUT, HISTORY, FREQ=0, VARIABLE=PRESELECT
  *END STEP
  *STEP, NLGEOM, UNSYMM=YES, INC=2000
  FREQUENCY EXTRACTION                                                            
  *FREQUENCY, EIGENSOLVER=LANCZOS
  *FREQUENCY, EIGENSOLVER=LANCZOS
  *BOUNDARY, OP=NEW
  *NODE PRINT, GLOBAL=YES, NSET=PIPE, FREQ=999

 ***WARNING: THE FREQUENCY PARAMETER IS IGNORED IN A *FREQUENCY, *COMPLEX 
             FREQUENCY, OR *BUCKLE STEP. USE THE MODE AND LAST MODE PARAMETERS 
             TO MODIFY OUTPUT REQUESTS.
  *OUTPUT, FIELD, VARIABLE=ALL, FREQUENCY=999

 ***WARNING: THE FREQUENCY PARAMETER IS IGNORED IN A *FREQUENCY, *COMPLEX 
             FREQUENCY, OR *BUCKLE STEP. USE THE MODE LIST PARAMETER TO MODIFY 
             OUTPUT REQUESTS.
  *MODAL FILE
  *END STEP
  *STEP, INC=100, NLGEOM
  *STATIC
  *BOUNDARY, OP=NEW
  *END STEP
  *STEP, NLGEOM, UNSYMM=YES, INC=2000
  *FREQUENCY, EIGENSOLVER=LANCZOS
  *FREQUENCY, EIGENSOLVER=LANCZOS
  *BOUNDARY, OP=NEW
  *END STEP

 ***WARNING: For 44 beam elements either the average curvature about the local 
             1-direction differs by more than 0.1 degrees per unit length as 
             compared to the default curvature or the approximate integrated 
             curvature for the entire beam differs by more than 5 degrees as 
             compared to the approximate integrated default curvature. This may 
             be due to a user-specified normal or due to the nodal averaging 
             routine used by Abaqus. This difference may cause unexpected 
             behavior of the beam and you may want to verify that the beam 
             normals are correct for your problem. The elements have been 
             identified in element set WarnBeamCurvature1.

 ***WARNING: THE UNSYMMETRIC SOLUTION SCHEME MAY NOT BE TURNED ON IN STEP 2



                            P R O B L E M   S I Z E


          NUMBER OF ELEMENTS IS                                  1396
          NUMBER OF NODES IS                                      801
          NUMBER OF NODES DEFINED BY THE USER                     401
          NUMBER OF INTERNAL NODES GENERATED BY THE PROGRAM       400
          TOTAL NUMBER OF VARIABLES IN THE MODEL                 4006
          (DEGREES OF FREEDOM PLUS MAX NO. OF ANY LAGRANGE MULTIPLIER
           VARIABLES. INCLUDE *PRINT,SOLVE=YES TO GET THE ACTUAL NUMBER.)



                              END OF USER INPUT PROCESSING



     JOB TIME SUMMARY
       USER TIME (SEC)      =  0.60000    
       SYSTEM TIME (SEC)    =  0.30000    
       TOTAL CPU TIME (SEC) =  0.90000    
       WALLCLOCK TIME (SEC) =          1
1

   Abaqus 6.14-2                                  Date 05-Aug-2023   Time 11:12:06
   For use by T_EN NET SAS under license from Dassault Systemes or its subsidiary.

                                                                                               STEP    1  INCREMENT    1
     INITIAL SET UP                                                                       TIME COMPLETED IN THIS STEP   0.00    


                        S T E P       1     S T A T I C   A N A L Y S I S


          INITIAL SET UP                                                                  

     AUTOMATIC TIME CONTROL WITH -
          A SUGGESTED INITIAL TIME INCREMENT OF                1.000E-04
          AND A TOTAL TIME PERIOD OF                            1.00    
          THE MINIMUM TIME INCREMENT ALLOWED IS                1.000E-09
          THE MAXIMUM TIME INCREMENT ALLOWED IS                 1.00    

     LINEAR EQUATION SOLVER TYPE         DIRECT SPARSE

          LARGE DISPLACEMENT THEORY WILL BE USED



                    TOTAL MASS OF MODEL

                       47259.66    


                    LOCATION OF THE CENTER OF MASS OF THE MODEL

                       200.0000         -5.2853789E-02       0.000000    


                    MOMENTS OF INERTIA ABOUT THE ORIGIN
                           I(XX)               I(YY)               I(ZZ)

                       2479.760          2.5204885E+09      2.5204897E+09


                    PRODUCTS OF INERTIA ABOUT THE ORIGIN
                           I(XY)               I(XZ)               I(YZ)

                       499570.5          2.4789013E-32     -4.3364021E-13


                    MOMENTS OF INERTIA ABOUT THE CENTER OF MASS
                           I(XX)               I(YY)               I(ZZ)

                       2347.739          6.3010188E+08      6.3010298E+08


                    PRODUCTS OF INERTIA ABOUT THE CENTER OF MASS
                           I(XY)               I(XZ)               I(YZ)

                      3.9581209E-09      2.4789013E-32     -4.3364021E-13
  
                   M E M O R Y   E S T I M A T E
  
 PROCESS      FLOATING PT       MINIMUM MEMORY        MEMORY TO
              OPERATIONS           REQUIRED          MINIMIZE I/O
             PER ITERATION           (MB)               (MB)
  
     1         1.54E+006               19                 43
  
 NOTE:
      (1) SINCE ABAQUS DOES NOT PRE-ALLOCATE MEMORY AND ONLY ALLOCATES MEMORY AS NEEDED DURING THE ANALYSIS,
          THE MEMORY REQUIREMENT PRINTED HERE CAN ONLY BE VIEWED AS A GENERAL GUIDELINE BASED ON THE BEST
          KNOWLEDGE AVAILABLE AT THE BEGINNING OF A STEP BEFORE THE SOLUTION PROCESS HAS BEGUN.
      (2) THE ESTIMATE IS NORMALLY UPDATED AT THE BEGINNING OF EVERY STEP. IT IS THE MAXIMUM VALUE OF THE
          ESTIMATE FROM THE CURRENT STEP TO THE LAST STEP OF THE ANALYSIS, WITH UNSYMMETRIC SOLUTION TAKEN
          INTO ACCOUNT IF APPLICABLE. 
      (3) SINCE THE ESTIMATE IS BASED ON THE ACTIVE DEGREES OF FREEDOM IN THE FIRST ITERATION OF THE 
          CURRENT STEP, THE MEMORY ESTIMATE MIGHT BE SIGNIFICANTLY DIFFERENT THAN ACTUAL USAGE FOR 
          PROBLEMS WITH SUBSTANTIAL CHANGES IN ACTIVE DEGREES OF FREEDOM BETWEEN STEPS (OR EVEN WITHIN
          THE SAME STEP). EXAMPLES ARE: PROBLEMS WITH SIGNIFICANT CONTACT CHANGES, PROBLEMS WITH MODEL
          CHANGE, PROBLEMS WITH BOTH STATIC STEP AND STEADY STATE DYNAMIC PROCEDURES WHERE ACOUSTIC 
          ELEMENTS WILL ONLY BE ACTIVATED IN THE STEADY STATE DYNAMIC STEPS.
      (4) FOR MULTI-PROCESS EXECUTION, THE ESTIMATED VALUE OF FLOATING POINT OPERATIONS FOR EACH PROCESS
          IS BASED ON AN INITIAL SCHEDULING OF OPERATIONS AND MIGHT NOT REFLECT THE ACTUAL FLOATING 
          POINT OPERATIONS COMPLETED ON EACH PROCESS. OPERATIONS ARE DYNAMICALLY BALANCED DURING EXECUTION, 
          SO THE ACTUAL BALANCE OF OPERATIONS BETWEEN PROCESSES IS EXPECTED TO BE BETTER THAN THE ESTIMATE
          PRINTED HERE.
      (5) THE UPPER LIMIT OF MEMORY THAT CAN BE ALLOCATED BY ABAQUS WILL IN GENERAL DEPEND ON THE VALUE OF
          THE "MEMORY" PARAMETER AND THE AMOUNT OF PHYSICAL MEMORY AVAILABLE ON THE MACHINE. PLEASE SEE
          THE "ABAQUS ANALYSIS USER'S MANUAL" FOR MORE DETAILS. THE ACTUAL USAGE OF MEMORY AND OF DISK
          SPACE FOR SCRATCH DATA WILL DEPEND ON THIS UPPER LIMIT AS WELL AS THE MEMORY REQUIRED TO MINIMIZE
          I/O. IF THE MEMORY UPPER LIMIT IS GREATER THAN THE MEMORY REQUIRED TO MINIMIZE I/O, THEN THE ACTUAL
          MEMORY USAGE WILL BE CLOSE TO THE ESTIMATED "MEMORY TO MINIMIZE I/O" VALUE, AND THE SCRATCH DISK
          USAGE WILL BE CLOSE-TO-ZERO; OTHERWISE, THE ACTUAL MEMORY USED WILL BE CLOSE TO THE PREVIOUSLY
          MENTIONED MEMORY LIMIT, AND THE SCRATCH DISK USAGE WILL BE ROUGHLY PROPORTIONAL TO THE DIFFERENCE
          BETWEEN THE ESTIMATED "MEMORY TO MINIMIZE I/O" AND THE MEMORY UPPER LIMIT. HOWEVER ACCURATE
          ESTIMATE OF THE SCRATCH DISK SPACE IS NOT POSSIBLE.
      (6) USING "*RESTART, WRITE" CAN GENERATE A LARGE AMOUNT OF DATA WRITTEN IN THE WORK DIRECTORY.
1

   Abaqus 6.14-2                                  Date 05-Aug-2023   Time 11:12:10
   For use by T_EN NET SAS under license from Dassault Systemes or its subsidiary.

                                                                                               STEP    2  INCREMENT    1
     FREQUENCY EXTRACTION                                                                 TIME COMPLETED IN THIS STEP   0.00    


                        S T E P       2     C A L C U L A T I O N   O F   E I G E N V A L U E S

                                            F O R   N A T U R A L   F R E Q U E N C I E S



          FREQUENCY EXTRACTION                                                            

     THE LANCZOS EIGENSOLVER IS USED FOR THIS ANALYSIS
     Abaqus WILL COMPUTE UNCOUPLED
      STRUCTURAL AND ACOUSTIC MODES
     NUMBER OF EIGENVALUES                     20
     HIGHEST FREQUENCY OF INTEREST                  1.00000E+18
     MAXIMUM NUMBER OF STEPS WITHIN RUN               35
     BLOCK SIZE FOR LANCZOS PROCEDURE                  7
     THE EIGENVECTORS ARE SCALED SO THAT 
      THE LARGEST DISPLACEMENT ENTRY IN EACH VECTOR
      IS UNITY
                              INITIAL STRESS AND DISPLACEMENT EFFECTS ARE
                              INCLUDED IN THE STIFFNESS MATRIX

     THIS IS A LINEAR PERTURBATION STEP.
     ALL LOADS ARE DEFINED AS CHANGE IN LOAD TO THE REFERENCE STATE

          LARGE DISPLACEMENT THEORY WILL BE USED
  
                   M E M O R Y   E S T I M A T E
  
 PROCESS      FLOATING PT       MINIMUM MEMORY        MEMORY TO
              OPERATIONS           REQUIRED          MINIMIZE I/O
             PER ITERATION           (MB)               (MB)
  
     1         1.46E+006               17                 42
  
 NOTE:
      (1) SINCE ABAQUS DOES NOT PRE-ALLOCATE MEMORY AND ONLY ALLOCATES MEMORY AS NEEDED DURING THE ANALYSIS,
          THE MEMORY REQUIREMENT PRINTED HERE CAN ONLY BE VIEWED AS A GENERAL GUIDELINE BASED ON THE BEST
          KNOWLEDGE AVAILABLE AT THE BEGINNING OF A STEP BEFORE THE SOLUTION PROCESS HAS BEGUN.
      (2) THE ESTIMATE IS NORMALLY UPDATED AT THE BEGINNING OF EVERY STEP. IT IS THE MAXIMUM VALUE OF THE
          ESTIMATE FROM THE CURRENT STEP TO THE LAST STEP OF THE ANALYSIS, WITH UNSYMMETRIC SOLUTION TAKEN
          INTO ACCOUNT IF APPLICABLE. 
      (3) SINCE THE ESTIMATE IS BASED ON THE ACTIVE DEGREES OF FREEDOM IN THE FIRST ITERATION OF THE 
          CURRENT STEP, THE MEMORY ESTIMATE MIGHT BE SIGNIFICANTLY DIFFERENT THAN ACTUAL USAGE FOR 
          PROBLEMS WITH SUBSTANTIAL CHANGES IN ACTIVE DEGREES OF FREEDOM BETWEEN STEPS (OR EVEN WITHIN
          THE SAME STEP). EXAMPLES ARE: PROBLEMS WITH SIGNIFICANT CONTACT CHANGES, PROBLEMS WITH MODEL
          CHANGE, PROBLEMS WITH BOTH STATIC STEP AND STEADY STATE DYNAMIC PROCEDURES WHERE ACOUSTIC 
          ELEMENTS WILL ONLY BE ACTIVATED IN THE STEADY STATE DYNAMIC STEPS.
      (4) FOR MULTI-PROCESS EXECUTION, THE ESTIMATED VALUE OF FLOATING POINT OPERATIONS FOR EACH PROCESS
          IS BASED ON AN INITIAL SCHEDULING OF OPERATIONS AND MIGHT NOT REFLECT THE ACTUAL FLOATING 
          POINT OPERATIONS COMPLETED ON EACH PROCESS. OPERATIONS ARE DYNAMICALLY BALANCED DURING EXECUTION, 
          SO THE ACTUAL BALANCE OF OPERATIONS BETWEEN PROCESSES IS EXPECTED TO BE BETTER THAN THE ESTIMATE
          PRINTED HERE.
      (5) THE UPPER LIMIT OF MEMORY THAT CAN BE ALLOCATED BY ABAQUS WILL IN GENERAL DEPEND ON THE VALUE OF
          THE "MEMORY" PARAMETER AND THE AMOUNT OF PHYSICAL MEMORY AVAILABLE ON THE MACHINE. PLEASE SEE
          THE "ABAQUS ANALYSIS USER'S MANUAL" FOR MORE DETAILS. THE ACTUAL USAGE OF MEMORY AND OF DISK
          SPACE FOR SCRATCH DATA WILL DEPEND ON THIS UPPER LIMIT AS WELL AS THE MEMORY REQUIRED TO MINIMIZE
          I/O. IF THE MEMORY UPPER LIMIT IS GREATER THAN THE MEMORY REQUIRED TO MINIMIZE I/O, THEN THE ACTUAL
          MEMORY USAGE WILL BE CLOSE TO THE ESTIMATED "MEMORY TO MINIMIZE I/O" VALUE, AND THE SCRATCH DISK
          USAGE WILL BE CLOSE-TO-ZERO; OTHERWISE, THE ACTUAL MEMORY USED WILL BE CLOSE TO THE PREVIOUSLY
          MENTIONED MEMORY LIMIT, AND THE SCRATCH DISK USAGE WILL BE ROUGHLY PROPORTIONAL TO THE DIFFERENCE
          BETWEEN THE ESTIMATED "MEMORY TO MINIMIZE I/O" AND THE MEMORY UPPER LIMIT. HOWEVER ACCURATE
          ESTIMATE OF THE SCRATCH DISK SPACE IS NOT POSSIBLE.
      (6) USING "*RESTART, WRITE" CAN GENERATE A LARGE AMOUNT OF DATA WRITTEN IN THE WORK DIRECTORY.


                              E I G E N V A L U E    O U T P U T     

 MODE NO      EIGENVALUE              FREQUENCY         GENERALIZED MASS   COMPOSITE MODAL DAMPING            
                             (RAD/TIME)   (CYCLES/TIME)


       1       47.833         6.9161         1.1007         2445.9         0.0000    
       2       74.651         8.6401         1.3751         2551.9         0.0000    
       3       268.64         16.390         2.6086         2764.3         0.0000    
       4       284.83         16.877         2.6861         2700.7         0.0000    
       5       750.19         27.390         4.3592         2375.5         0.0000    
       6       815.91         28.564         4.5461         1935.3         0.0000    
       7       848.92         29.136         4.6372         2567.7         0.0000    
       8       919.92         30.330         4.8272         1970.8         0.0000    
       9       1003.5         31.678         5.0418         3741.7         0.0000    
      10       1053.6         32.458         5.1659         4153.5         0.0000    
      11       2338.1         48.354         7.6957         2789.9         0.0000    
      12       2480.8         49.807         7.9271         2714.9         0.0000    
      13       4738.7         68.839         10.956         4096.3         0.0000    
      14       4957.5         70.409         11.206         2162.8         0.0000    
      15       5111.2         71.493         11.378         3047.0         0.0000    
      16       5149.7         71.761         11.421         1847.4         0.0000    
      17       5834.8         76.386         12.157         1580.5         0.0000    
      18       6078.4         77.964         12.408         1552.2         0.0000    
      19       6163.8         78.510         12.495         16242.         0.0000    
      20       8476.2         92.066         14.653         2863.6         0.0000    


          P A R T I C I P A T I O N   F A C T O R S

 MODE NO    X-COMPONENT    Y-COMPONENT    Z-COMPONENT    X-ROTATION     Y-ROTATION     Z-ROTATION 

       1      3.28545E-16    6.89604E-16     1.2794       -0.73809        -255.92        1.30166E-13
       2      4.05303E-03     1.2674        1.23219E-16    1.34285E-16   -5.97270E-14     253.54    
       3      5.46123E-02   -1.12322E-03   -6.09622E-16   -1.25437E-16   -4.82322E-14    -9.3012    
       4      1.04848E-15    2.94534E-16   -2.90982E-03    2.49289E-04     10.749       -4.47485E-14
       5      2.12646E-03    0.83324       -6.79608E-15    1.45690E-16    1.40145E-12     173.59    
       6     -1.69847E-02    8.31533E-02   -5.79028E-15   -4.22988E-16    1.17560E-12    -29.417    
       7      2.30586E-16    2.52432E-15    0.66369        3.08776E-02    -139.07        2.26466E-13
       8     -3.57644E-16   -1.34120E-15    1.32637E-02    8.94328E-03     41.728       -3.12959E-13
       9     -3.11707E-03    0.92185       -2.18002E-14    8.82238E-16    4.33219E-12     183.31    
      10     -1.41674E-15    2.22212E-14    0.92217       -3.40683E-02    -182.59        4.47620E-12
      11      2.47562E-02    9.32907E-03   -1.80452E-15    7.36285E-17    6.79617E-13     15.446    
      12      2.91738E-15   -7.56473E-16    8.69520E-03   -5.11752E-04    -14.484        1.06705E-13
      13     -2.83545E-02    0.28950        1.00960E-13   -9.09227E-16   -4.20810E-11     58.633    
      14      0.16624        0.25143        3.34166E-13   -4.99771E-15   -8.54220E-11     45.218    
      15      3.08333E-13    1.34388E-12    0.37395       -2.27131E-02    -74.963        3.71554E-10
      16     -0.17616        0.29894       -2.33600E-13    2.76749E-15   -7.79937E-11     63.205    
      17     -3.07298E-11   -3.73652E-11    0.15144       -1.29465E-02    -23.972       -2.30604E-09
      18      7.54289E-11    9.48683E-11   -0.21937        2.06105E-02     47.604        1.66372E-08
      19       1.4903        9.56746E-04    1.13768E-12   -1.58278E-14   -7.53228E-10    0.60246    
      20      0.14737       -2.29624E-02   -2.86064E-09   -3.88236E-11   -2.25410E-06    -17.032    


                    E F F E C T I V E   M A S S

 MODE NO    X-COMPONENT    Y-COMPONENT    Z-COMPONENT    X-ROTATION     Y-ROTATION     Z-ROTATION 

       1      2.64016E-28    1.16316E-27     4003.4         1332.5        1.60198E+08    4.14418E-23
       2      4.19209E-02     4099.0        3.87457E-29    4.60179E-29    9.10355E-24    1.64041E+08
       3       8.2446        3.48748E-03    1.02732E-27    4.34946E-29    6.43072E-24    2.39147E+05
       4      2.96890E-27    2.34288E-28    2.28670E-02    1.67836E-04    3.12057E+05    5.40799E-24
       5      1.07417E-02     1649.3        1.09717E-25    5.04219E-29    4.66569E-21    7.15849E+07
       6      0.55830         13.382        6.48862E-26    3.46265E-28    2.67468E-21    1.67470E+06
       7      1.36524E-28    1.63618E-26     1131.0         2.4481        4.96598E+07    1.31688E-22
       8      2.52087E-28    3.54514E-27    0.34672        0.15763        3.43170E+06    1.93030E-22
       9      3.63546E-02     3179.7        1.77822E-24    2.91230E-27    7.02232E-20    1.25731E+08
      10      8.33666E-27    2.05089E-24     3532.1         4.8207        1.38472E+08    8.32202E-20
      11       1.7098        0.24281        9.08473E-27    1.51245E-29    1.28859E-21    6.65600E+05
      12      2.31067E-26    1.55360E-27    0.20526        7.11003E-04    5.69531E+05    3.09117E-23
      13       3.2933         343.32        4.17532E-23    3.38639E-27    7.25379E-18    1.40824E+07
      14       59.770         136.72        2.41512E-22    5.40202E-26    1.57817E-17    4.42209E+06
      15      2.89679E-22    5.50302E-21     426.09         1.5719        1.71228E+07    4.20651E-16
      16       57.330         165.10        1.00811E-22    1.41493E-26    1.12378E-17    7.38013E+06
      17      1.49252E-18    2.20665E-18     36.249        0.26492        9.08263E+05    8.40493E-15
      18      8.83109E-18    1.39695E-17     74.694        0.65935        3.51743E+06    4.29634E-13
      19       36073.        1.48670E-02    2.10219E-20    4.06883E-24    9.21473E-15     5895.1    
      20       62.188         1.5099        2.34338E-14    4.31626E-18    1.45500E-08    8.30726E+05

 TOTAL         36266.         9588.3         9204.1         1342.4        3.74192E+08    3.90658E+08




                    E I G E N V A L U E    N U M B E R     1
  
  
  
  
                                       N O D E   O U T P U T
  
  
  
  
   THE FOLLOWING TABLE IS PRINTED FOR NODES BELONGING TO NODE SET PIPE
  
       NODE FOOT-   U1          U2          U3          UR1         UR2         UR3      
            NOTE
  
          2      2.1445E-18 -2.0296E-17 -9.8060E-18   0.000     -5.7937E-18 -9.4117E-18 
          3     -4.6716E-18 -1.6912E-17  1.0479E-17   0.000      9.2982E-19 -7.0953E-18 
          4     -5.0294E-18 -3.7564E-17 -1.2373E-17   0.000      1.8150E-18 -1.8447E-17 
          5     -4.0428E-18 -4.9459E-17  1.4816E-17   0.000     -4.1262E-17  1.5343E-17 
          6     -5.8805E-19 -1.0307E-17  6.0451E-17   0.000     -2.0781E-17  3.3452E-17 
          7      8.8652E-19  1.0414E-17  5.6912E-17   0.000     -1.7126E-18  1.1082E-17 
          8      6.0050E-18  1.3686E-17  6.5045E-17   0.000      6.4340E-18  6.1874E-18 
          9      1.1378E-17  2.5607E-17  4.1603E-17   0.000      2.6185E-17 -2.0377E-18 
         10      7.9835E-18  7.1667E-18  1.6600E-17   0.000      2.5093E-17 -2.4824E-17 
         11      9.5338E-18 -2.1619E-17 -5.6041E-18   0.000     -1.7065E-18 -2.6469E-17 
         12      2.6552E-18 -4.0463E-17  1.7635E-17   0.000     -7.0748E-18 -4.0811E-18 
         13      8.7680E-18 -3.6367E-17  5.6669E-18   0.000      1.5855E-17 -1.9822E-17 
         14      7.3537E-19 -7.6096E-17 -1.2158E-17   0.000      9.0333E-18 -1.3996E-17 
         15      1.0773E-17 -5.6574E-17 -1.2335E-17   0.000      8.6194E-18  4.3893E-17 
         16      3.7300E-18 -7.3761E-19 -2.6348E-17   0.000      5.3250E-18  3.0169E-17 
         17      7.3190E-19 -2.7432E-18 -2.0987E-17   0.000     -1.5283E-17 -2.2616E-17 
         18     -6.2536E-18 -3.0926E-17 -1.3295E-18   0.000     -1.3793E-17  9.5224E-18 
         19      3.7999E-18  1.4963E-17  6.8713E-18   0.000     -2.2167E-17  3.4046E-17 
         20      1.1736E-17  2.3813E-17  4.3172E-17   0.000     -3.4397E-17 -1.2307E-17 
         21      4.8442E-18 -8.2487E-19  6.7604E-17   0.000      9.8761E-18 -1.9617E-17 
         22      6.5803E-18 -1.1811E-17  2.7561E-17   0.000      3.3061E-17 -2.0440E-17 
         23      5.8635E-18 -4.4063E-17  9.6514E-18   0.000     -6.5455E-18 -3.8414E-17 
         24      4.1063E-18 -7.8729E-17  3.4720E-17   0.000     -1.2289E-17  3.6459E-18 
         25      4.3227E-18 -3.7974E-17  3.1508E-17   0.000      4.5650E-18  4.4457E-17 
         26      5.6691E-18  1.0586E-18  2.8270E-17   0.000      3.6038E-18  2.3255E-17 
         27      1.7521E-18  1.4916E-17  2.3166E-17   0.000      1.1474E-17  2.6957E-17 
         28      1.9259E-18  4.7229E-17  1.0295E-17   0.000      5.0921E-18 -6.5610E-18 
         29     -4.4175E-18  2.7484E-18  1.2935E-17   0.000      8.6447E-18 -2.4676E-17 
         30     -8.4066E-18  6.7178E-18 -7.0242E-18   0.000      1.2676E-17  5.6001E-18 
         31     -1.2388E-18  9.7829E-18 -7.5782E-18   0.000     -1.6578E-17  1.4626E-17 
         32      2.5350E-18  3.3461E-17  1.7317E-17   0.000      3.7569E-18  1.1923E-17 
         33     -4.0476E-18  3.1417E-17 -1.0880E-17   0.000      1.5514E-17  5.5007E-18 
         34     -4.1457E-19  4.5642E-17 -9.6920E-18   0.000     -4.0258E-18 -6.3446E-18 
         35     -6.0701E-19  1.9693E-17 -9.9348E-18   0.000      4.3160E-18 -1.6888E-17 
         36     -1.2867E-18  1.4060E-17 -2.0135E-17   0.000      1.5664E-17 -1.7649E-17 
         37     -1.0717E-18 -1.7654E-17 -3.6420E-17   0.000      1.3730E-19 -2.5760E-17 
         38      2.3154E-18 -3.0531E-17 -1.9462E-17   0.000     -1.9101E-17  1.0389E-17 
         39      3.2507E-19  7.1956E-19 -2.6900E-18   0.000     -1.0376E-17  2.2631E-17 
         40      1.8080E-18  6.6420E-18  1.0655E-18   0.000      4.5389E-18 -1.3140E-17 
         41     -4.0666E-18 -1.7825E-17 -1.1980E-17   0.000      1.6654E-17  2.0900E-19 
         42     -1.7401E-18  1.2308E-17 -2.9722E-17   0.000      1.5686E-17  3.3951E-17 
         43     -6.6742E-18  4.1341E-17 -4.2477E-17   0.000      9.8329E-18  9.7205E-18 
         44     -8.3492E-18  3.3401E-17 -4.6390E-17   0.000     -1.2671E-17 -5.5282E-18 
         45     -4.8644E-18  3.1068E-17 -1.9485E-17   0.000     -2.9167E-17 -2.4788E-17 
         46     -2.5954E-18 -1.4421E-17  7.5190E-18   0.000     -2.9453E-17 -3.1079E-17 
         47     -2.9488E-18 -2.3484E-17  3.9557E-17   0.000     -2.5596E-17  2.1545E-17 
         48     -4.5766E-18  2.1356E-17  5.4943E-17   0.000     -1.6226E-18  3.0232E-17 
         49      2.3052E-18  3.1423E-17  4.0128E-17   0.000      2.4173E-17  5.3841E-18 
         50      2.6157E-18  3.4966E-17  1.1982E-17   0.000      1.1565E-17  7.8300E-18 
         51     -5.3260E-18  4.1919E-17  1.8805E-17   0.000     -8.5600E-18 -1.8202E-17 
         52     -1.4620E-17  1.1341E-18  2.0580E-17   0.000      2.2995E-17 -4.8073E-17 
         53     -7.1672E-18 -4.8911E-17 -2.3625E-17   0.000      2.2882E-17 -4.5882E-17 
         54     -8.7629E-18 -9.1720E-17 -1.7219E-17   0.000     -2.3232E-17 -1.9933E-17 
         55     -5.1476E-18 -9.1838E-17  1.5831E-17   0.000     -2.1353E-17 -7.8038E-18 
         56      4.5772E-19 -1.0588E-16  2.2714E-17   0.000     -6.4879E-18  2.0632E-18 
         57     -1.0757E-18 -8.7762E-17  3.3467E-17   0.000     -1.5282E-17  2.3523E-17 
         58      5.9420E-18 -5.6279E-17  5.6670E-17   0.000     -2.8065E-17  4.6868E-17 
         59     -2.1431E-18  2.1314E-18  8.5647E-17   0.000     -1.5238E-17  4.0381E-17 
         60      3.0717E-18  1.8517E-17  8.4071E-17   0.000      1.0674E-17  6.7738E-18 
         61     -4.4542E-18  1.6090E-17  6.2952E-17   0.000      2.9575E-17 -2.4853E-17 
         62     -1.4413E-17 -2.8834E-17  2.8751E-17   0.000      2.0955E-17 -4.3656E-17 
         63     -1.1794E-17 -6.5898E-17  2.0626E-17   0.000      2.4857E-17 -2.7375E-17 
         64     -7.5063E-18 -8.0270E-17 -2.2092E-17   0.000      3.4080E-17  9.9915E-18 
         65     -1.1484E-17 -4.5375E-17 -4.4435E-17   0.000      9.8748E-18  5.8474E-17 
         66     -4.5102E-18  2.7017E-17 -4.3668E-17   0.000     -4.4645E-18  4.2129E-17 
         67     -1.3334E-17  3.7204E-17 -3.5447E-17   0.000     -1.1319E-17  1.3209E-17 
         68     -6.8934E-18  6.3181E-17 -2.1339E-17   0.000     -8.9538E-18  3.4171E-17 
         69     -1.0215E-17  9.7920E-17 -1.5041E-17   0.000     -2.4890E-17  1.2620E-19 
         70     -4.9426E-18  6.6395E-17  2.6470E-17   0.000     -3.1444E-17 -1.9167E-17 
         71     -3.8026E-18  6.3261E-17  4.0823E-17   0.000      6.0103E-18 -8.2080E-18 
         72     -1.1333E-18  4.9366E-17  1.6177E-17   0.000      2.9533E-17 -7.1058E-18 
         73      6.2142E-18  5.0460E-17 -1.2646E-17   0.000      2.4151E-17  2.5650E-18 
         74      7.2158E-18  5.1307E-17 -2.9052E-17   0.000      2.1368E-18 -7.2373E-18 
         75      1.1751E-17  3.9666E-17 -1.6573E-17   0.000     -2.1658E-17  4.5725E-18 
         76      4.2730E-18  6.0749E-17  1.0881E-17   0.000     -2.8743E-17  1.4645E-17 
         77     -2.9942E-18  6.6142E-17  3.6004E-17   0.000      2.1514E-18 -4.7056E-18 
         78      3.8080E-18  5.0883E-17  3.9773E-18   0.000      4.2524E-17 -1.7458E-17 
         79     -8.9959E-18  3.6295E-17 -4.0295E-17   0.000      3.1980E-17  4.3840E-18 
         80     -6.4787E-18  5.6406E-17 -5.9724E-17   0.000      1.9124E-17  3.7720E-18 
         81      3.6600E-18  3.6298E-17 -7.8340E-17   0.000      6.9785E-18 -4.1157E-17 
         82      1.5841E-17 -1.4087E-17 -7.1385E-17   0.000     -1.1201E-17 -1.5333E-17 
         83      8.5260E-18  9.5253E-18 -4.9049E-17   0.000     -7.0239E-17  3.3108E-17 
         84      4.3492E-18  3.4902E-17  7.6333E-17   0.000     -1.6996E-16 -1.3507E-17 
         85     -8.4037E-18 -1.6966E-17  2.9148E-16   0.000     -2.7038E-16 -5.4659E-17 
         86     -1.0341E-17 -6.1409E-17  6.2043E-16   0.000     -3.9118E-16 -1.5507E-17 
         87     -1.9341E-17 -5.1122E-17  1.0722E-15   0.000     -5.0495E-16  9.6569E-18 
         88     -2.1858E-17 -5.0391E-17  1.6134E-15   0.000     -5.1917E-16 -4.2879E-18 
         89     -2.0471E-17 -5.5389E-17  2.0737E-15   0.000     -3.0353E-16  6.1612E-18 
         90     -2.2735E-17 -2.9531E-17  2.1576E-15   0.000      3.0010E-16  5.8999E-17 
         91     -2.9413E-17  5.5587E-17  1.3843E-15   0.000      1.4315E-15  7.1647E-17 
         92     -2.5382E-17  1.0477E-16 -8.2239E-16   0.000      3.2662E-15  2.6211E-17 
         93     -9.6655E-18  1.1302E-16 -5.2776E-15   0.000      5.8746E-15  4.2664E-18 
         94      9.2489E-19  1.1507E-16 -1.2654E-14   0.000      8.9871E-15 -1.9349E-17 
         95     -9.4336E-18  7.6698E-17 -2.3219E-14   0.000      1.1907E-14 -4.1204E-17 
         96     -2.4342E-18  3.4976E-17 -3.6186E-14   0.000      1.3138E-14 -4.2540E-17 
         97      5.9249E-18 -2.5733E-18 -4.8795E-14   0.000      1.0183E-14 -1.6262E-17 
         98      4.6242E-18  4.5427E-18 -5.5239E-14   0.000     -6.3824E-16  6.3134E-18 
         99      5.4372E-18  4.3229E-18 -4.5439E-14   0.000     -2.3926E-14 -1.4394E-17 
        100      3.2145E-18 -2.2108E-17 -4.5398E-15   0.000     -6.4274E-14 -2.4451E-17 
        101     -1.2671E-18 -3.5424E-17  8.6403E-14   0.000     -1.2434E-13  2.1570E-17 
        102     -3.7621E-18  1.4258E-17  2.4697E-13   0.000     -2.0139E-13  3.7453E-17 
        103      4.1522E-18  3.3128E-17  4.8980E-13   0.000     -2.8216E-13  2.6533E-17 
        104     -9.0057E-18  7.1125E-17  8.0684E-13   0.000     -3.3623E-13  3.0851E-17 
        105     -1.1633E-17  9.4301E-17  1.1487E-12   0.000     -3.0884E-13  1.6456E-17 
        106      3.8333E-19  9.9164E-17  1.3969E-12   0.000     -1.1616E-13 -2.2755E-17 
        107      1.0113E-17  5.3556E-17  1.3348E-12   0.000      3.5290E-13 -2.7022E-17 
        108     -7.1859E-18  4.7325E-17  6.2452E-13   0.000      1.2210E-12 -1.6305E-17 
        109     -3.1864E-17  1.6741E-17 -1.1896E-12   0.000      2.5829E-12 -2.6433E-17 
        110     -2.1822E-17  4.0815E-19 -4.6225E-12   0.000      4.4317E-12 -3.3432E-18 
        111     -1.3338E-17  5.5915E-18 -1.0097E-11   0.000      6.5427E-12  4.5022E-18 
        112     -2.1444E-17  1.1366E-17 -1.7651E-11   0.000      8.3140E-12  2.9569E-17 
        113     -3.3976E-17  6.4500E-17 -2.6474E-11   0.000      8.5836E-12  5.6202E-17 
        114     -1.2679E-17  1.1198E-16 -3.4254E-11   0.000      5.4708E-12  1.4444E-17 
        115      9.0015E-18  9.6636E-17 -3.6411E-11   0.000     -3.6582E-12 -6.5271E-18 
        116      1.2394E-18  1.0902E-16 -2.5410E-11   0.000     -2.1938E-11  2.3715E-17 
        117     -3.7792E-18  1.3216E-16  9.4725E-12   0.000     -5.2243E-11 -2.1915E-17 
        118     -9.7210E-18  6.8250E-17  8.1261E-11   0.000     -9.5638E-11 -5.4866E-17 
        119     -2.7839E-17  3.3479E-17  2.0238E-10   0.000     -1.4880E-10 -2.6416E-17 
        120      6.8381E-18  1.4960E-17  3.7859E-10   0.000     -2.0030E-10 -5.8780E-18 
        121      1.4714E-17  1.6968E-17  5.9867E-10   0.000     -2.2597E-10 -2.1053E-17 
        122     -1.1318E-17 -2.3946E-17  8.1930E-10   0.000     -1.8438E-10 -2.0515E-17 
        123     -2.3510E-17 -2.1282E-17  9.4600E-10   0.000     -1.4441E-11  4.3012E-18 
        124     -1.1011E-17 -2.4578E-17  8.1381E-10   0.000      3.6140E-10 -1.9845E-17 
        125     -4.3651E-18 -5.5922E-17  1.7549E-10   0.000      1.0231E-09 -7.4879E-18 
        126     -4.5381E-18 -3.9422E-17 -1.2885E-09   0.000      2.0212E-09  1.6868E-19 
        127      1.8577E-18 -5.5995E-17 -3.9174E-09   0.000      3.3211E-09 -1.4558E-17 
        128     -2.2374E-17 -6.1025E-17 -7.9468E-09   0.000      4.7170E-09  1.7939E-17 
        129     -3.6375E-17 -2.2309E-17 -1.3286E-08   0.000      5.7199E-09  2.3448E-17 
        130     -2.0253E-18 -1.8557E-17 -1.9172E-08   0.000      5.4358E-09  7.9393E-18 
        131     -2.2288E-17 -5.2781E-18 -2.3711E-08   0.000      2.4751E-09  6.8056E-18 
        132     -9.5894E-18 -7.5478E-18 -2.3363E-08   0.000     -5.0314E-09 -3.4286E-18 
        133     -5.1155E-17 -1.0943E-17 -1.2537E-08   0.000     -1.9190E-08 -7.2034E-18 
        134     -1.7912E-17 -2.3187E-17  1.6413E-08   0.000     -4.1713E-08 -1.9777E-17 
        135      1.6402E-17 -4.7144E-17  7.2306E-08   0.000     -7.2724E-08 -1.3361E-17 
        136     -2.7195E-18 -4.7405E-17  1.6271E-07   0.000     -1.0883E-07 -5.5009E-19 
        137     -3.3323E-17 -4.8298E-17  2.8921E-07   0.000     -1.4044E-07  1.3676E-17 
        138     -1.8431E-17 -2.1133E-17  4.3969E-07   0.000     -1.4868E-07  3.1948E-17 
        139      2.7289E-17  1.2656E-17  5.7749E-07   0.000     -1.0252E-07  3.5363E-17 
        140     -1.2641E-17  4.3352E-17  6.2830E-07   0.000      4.2063E-08 -6.5157E-18 
        141     -6.2995E-17  2.5012E-18  4.6802E-07   0.000      3.3842E-07 -3.7345E-17 
        142     -3.3269E-17 -2.0563E-17 -8.2317E-08   0.000      8.3715E-07 -9.9351E-18 
        143     -5.6584E-17 -2.2031E-17 -1.2439E-06   0.000      1.5611E-06 -1.6839E-17 
        144      2.1999E-17 -5.3346E-17 -3.2341E-06   0.000      2.4628E-06 -1.3680E-17 
        145      5.0740E-17 -4.5357E-17 -6.1691E-06   0.000      3.3625E-06  9.4394E-18 
        146     -2.3762E-17 -3.9734E-17 -9.8937E-06   0.000      3.8703E-06 -1.8581E-17 
        147     -1.5132E-17 -7.6213E-17 -1.3731E-05   0.000      3.3063E-06  4.0118E-18 
        148     -1.7947E-17 -2.8285E-17 -1.6158E-05   0.000      6.5427E-07  4.0407E-17 
        149      2.6306E-17 -2.6791E-18 -1.4472E-05   0.000     -5.3960E-06  2.0265E-17 
        150     -3.0167E-17  1.5035E-17 -4.5674E-06   0.000     -1.6229E-05  2.3285E-17 
        151      2.3673E-17  3.9535E-17  1.8944E-05   0.000     -3.2796E-05  1.9859E-17 
        152     -3.7673E-17  5.2549E-17  6.1915E-05   0.000     -5.4695E-05  4.7645E-18 
        153     -2.1846E-17  5.4185E-17  1.2869E-04   0.000     -7.8751E-05 -4.5135E-19 
        154     -3.3238E-17  4.9739E-17  2.1847E-04   0.000     -9.7128E-05 -1.0948E-17 
        155     -7.7644E-17  3.4840E-17  3.1956E-04   0.000     -9.5232E-05 -3.0688E-18 
        156     -6.5042E-17  4.3287E-17  4.0171E-04   0.000     -5.0063E-05  2.3480E-18 
        157      5.7024E-18  3.4358E-17  4.0723E-04   0.000      6.9751E-05 -1.6546E-17 
        158     -3.3816E-17  9.9763E-18  2.4373E-04   0.000      3.0027E-04 -3.0011E-17 
        159     -8.8843E-17 -2.7003E-17 -2.1693E-04   0.000      6.7224E-04 -3.3000E-17 
        160     -1.9199E-17 -5.3051E-17 -1.1254E-03   0.000      1.1915E-03 -3.1440E-17 
        161     -1.1330E-17 -8.6803E-17 -2.6162E-03   0.000      1.8075E-03 -2.4461E-17 
        162     -9.0413E-17 -1.0037E-16 -4.7311E-03   0.000      2.3682E-03 -7.8612E-18 
        163     -1.1981E-16 -1.0468E-16 -7.3260E-03   0.000      2.7696E-03 -1.6760E-17 
        164     -7.3687E-17 -1.3507E-16 -1.0245E-02   0.000      3.0178E-03 -4.7740E-17 
        165     -2.2238E-16 -1.9979E-16 -1.3337E-02   0.000      3.1175E-03 -7.1978E-17 
        166     -2.9389E-17 -2.7024E-16 -1.6456E-02   0.000      3.0722E-03 -4.5204E-17 
        167     -9.1789E-17 -2.9077E-16 -1.9457E-02   0.000      2.8841E-03 -1.9930E-17 
        168      8.5484E-17 -3.2478E-16 -2.2200E-02   0.000      2.5539E-03 -1.2421E-17 
        169      2.0079E-16 -3.0016E-16 -2.4542E-02   0.000      2.0817E-03  5.4370E-18 
        170     -1.7185E-16 -2.9315E-16 -2.6339E-02   0.000      1.4660E-03  1.0396E-17 
        171     -1.7593E-16 -2.9483E-16 -2.7449E-02   0.000      7.0318E-04 -1.7322E-17 
        172     -1.2225E-16 -3.3058E-16 -2.7721E-02   0.000     -2.1150E-04 -2.8039E-17 
        173     -2.7819E-16 -3.3251E-16 -2.7000E-02   0.000     -1.2840E-03  1.1253E-17 
        174     -1.9980E-17 -3.1611E-16 -2.5125E-02   0.000     -2.5225E-03  4.3505E-17 
        175      8.8195E-17 -2.5542E-16 -2.1925E-02   0.000     -3.9386E-03  6.0288E-17 
        176     -5.4291E-18 -1.9851E-16 -1.7216E-02   0.000     -5.5465E-03  5.5432E-17 
        177     -3.1314E-17 -1.5061E-16 -1.0674E-02   0.000     -8.1000E-03  5.6976E-17 
        178      2.4942E-18 -8.6502E-17 -6.5338E-04   0.000     -1.2823E-02  6.4442E-17 
        179     -2.2198E-17 -2.1103E-17  1.5425E-02   0.000     -2.0260E-02  7.1954E-17 
        180      7.1114E-18  6.5826E-17  4.0230E-02   0.000     -2.9875E-02  1.0187E-16 
        181     -7.4491E-17  1.8390E-16  7.5163E-02   0.000     -3.9412E-02  1.2237E-16 
        182     -4.0022E-17  3.2700E-16  0.1188       0.000     -4.7280E-02  1.4223E-16 
[...]
        186     -7.4541E-03  1.5473E-02 -1.1264E-08   0.000     -3.2048E-10 -0.3666     
        187     -2.2190E-02 -0.3429     -9.2456E-09   0.000     -3.6285E-09 -0.3304     
        188     -3.4138E-02 -0.6363     -4.1452E-09   0.000     -6.1110E-09 -0.2400     
        189     -4.1279E-02 -0.8161      2.6662E-09   0.000     -6.7538E-09 -0.1099     
        190     -4.2702E-02 -0.8532      9.0053E-09   0.000     -5.2688E-09  3.7181E-02 
        191     -3.8664E-02 -0.7430      1.2901E-08   0.000     -1.9869E-09  0.1770     
        192     -3.0467E-02 -0.5043      1.2853E-08   0.000      2.0453E-09  0.2866     
        193     -2.0109E-02 -0.1781      8.9304E-09   0.000      5.3785E-09  0.3469     
        194     -9.8221E-03  0.1794      2.3489E-09   0.000      7.1993E-09  0.3476     
        195     -1.3988E-03  0.5071     -5.1254E-09   0.000      6.9751E-09  0.2888     
        196      3.9551E-03  0.7486     -1.1227E-08   0.000      4.5263E-09  0.1797     
        197      6.0607E-03  0.8611     -1.3912E-08   0.000      4.9825E-10  3.8477E-02 
        198      5.5792E-03  0.8244     -1.2175E-08   0.000     -3.8109E-09 -0.1096     
        199      3.7669E-03  0.6453     -6.4916E-09   0.000     -6.9198E-09 -0.2379     
        200      1.9915E-03  0.3557      1.2730E-09   0.000     -7.7090E-09 -0.3246     
        201      1.3015E-03  5.3188E-03  8.5067E-09   0.000     -6.0092E-09 -0.3562     
        202      2.0823E-03 -0.3466      1.2996E-08   0.000     -2.5537E-09 -0.3278     
        203      3.9746E-03 -0.6409      1.3518E-08   0.000      1.4759E-09 -0.2439     
        204      5.9506E-03 -0.8275      1.0142E-08   0.000      4.9287E-09 -0.1182     
        205      6.6640E-03 -0.8741      3.9093E-09   0.000      6.9002E-09  2.7144E-02 
        206      4.8729E-03 -0.7741     -3.3025E-09   0.000      6.7530E-09  0.1672     
        207     -1.3191E-04 -0.5445     -9.2255E-09   0.000      4.4069E-09  0.2791     
        208     -8.2878E-03 -0.2239     -1.1899E-08   0.000      7.7304E-10  0.3438     
        209     -1.8478E-02  0.1333     -1.0777E-08   0.000     -2.8343E-09  0.3501     
        210     -2.8965E-02  0.4663     -6.4217E-09   0.000     -5.3023E-09  0.2969     
        211     -3.7548E-02  0.7187     -5.0956E-10   0.000     -5.7695E-09  0.1938     
        212     -4.2216E-02  0.8485      4.7796E-09   0.000     -4.2386E-09  5.8220E-02 
        213     -4.1547E-02  0.8333      7.7944E-09   0.000     -1.6679E-09 -8.8582E-02 
        214     -3.5116E-02  0.6735      8.1123E-09   0.000      9.3706E-10 -0.2224     
        215     -2.3675E-02  0.3947      6.0051E-09   0.000      3.0259E-09 -0.3197     
        216     -9.1297E-03  4.3032E-02  2.2621E-09   0.000      3.9134E-09 -0.3641     
        217      5.9640E-03 -0.3237     -1.5646E-09   0.000      3.2842E-09 -0.3495     
        218      1.9053E-02 -0.6468     -4.1530E-09   0.000      1.7409E-09 -0.2804     
        219      2.8122E-02 -0.8778     -5.0402E-09   0.000      1.5749E-10 -0.1723     
        220      3.2326E-02 -0.9889     -4.5900E-09   0.000     -6.9677E-10 -4.9316E-02 
        221      3.2073E-02 -0.9785     -3.8635E-09   0.000     -2.7078E-10  6.1795E-02 
        222      2.8887E-02 -0.8720     -4.2358E-09   0.000      1.2648E-09  0.1330     
        223      2.4899E-02 -0.7201     -6.4342E-09   0.000      3.0604E-09  0.1588     
        224      2.1346E-02 -0.5590     -1.0279E-08   0.000      4.3999E-09  0.1571     
        225      1.8654E-02 -0.4083     -1.5070E-08   0.000      4.7625E-09  0.1410     
        226      1.6836E-02 -0.2778     -1.9555E-08   0.000      3.6397E-09  0.1196     
        227      1.5705E-02 -0.1687     -2.1998E-08   0.000      4.1733E-10  0.1007     
        228      1.5026E-02 -7.5861E-02 -2.0107E-08   0.000     -4.4772E-09  8.5002E-02 
        229      1.4668E-02  9.4929E-04 -1.3136E-08   0.000     -8.8159E-09  6.7502E-02 
        230      1.4533E-02  5.8550E-02 -2.9219E-09   0.000     -1.0512E-08  4.6492E-02 
        231      1.4531E-02  9.3473E-02  7.3475E-09   0.000     -8.9960E-09  2.2755E-02 
        232      1.4577E-02  0.1040      1.4638E-08   0.000     -4.9102E-09 -1.4808E-03 
        233      1.4606E-02  9.0882E-02  1.6973E-08   0.000      3.3165E-10 -2.3500E-02 
        234      1.4582E-02  5.7835E-02  1.4117E-08   0.000      4.7335E-09 -4.0374E-02 
        235      1.4503E-02  1.1421E-02  7.8955E-09   0.000      6.8432E-09 -4.9565E-02 
        236      1.4391E-02 -3.9803E-02  7.6767E-10   0.000      6.9502E-09 -4.9858E-02 
        237      1.4278E-02 -8.6860E-02 -5.8242E-09   0.000      5.9585E-09 -4.1592E-02 
        238      1.4194E-02 -0.1219     -1.1031E-08   0.000      4.2638E-09 -2.6716E-02 
        239      1.4156E-02 -0.1398     -1.4340E-08   0.000      2.4983E-09 -8.7633E-03 
        240      1.4160E-02 -0.1396     -1.6111E-08   0.000      1.2266E-09  8.2001E-03 
        241      1.4190E-02 -0.1243     -1.6916E-08   0.000      6.9595E-10  1.9756E-02 
        242      1.4229E-02 -0.1012     -1.7597E-08   0.000      7.3833E-10  2.4474E-02 
        243      1.4262E-02 -7.6146E-02 -1.8400E-08   0.000      8.3102E-10  2.4326E-02 
        244      1.4286E-02 -5.3038E-02 -1.9196E-08   0.000      5.5822E-10  2.1263E-02 
        245      1.4300E-02 -3.3818E-02 -1.9431E-08   0.000     -2.1982E-10  1.7030E-02 
        246      1.4307E-02 -1.9001E-02 -1.8712E-08   0.000     -1.2670E-09  1.2674E-02 
        247      1.4309E-02 -8.4006E-03 -1.6892E-08   0.000     -2.3497E-09  8.7450E-03 
        248      1.4309E-02 -1.3932E-03 -1.4029E-08   0.000     -3.3398E-09  5.5261E-03 
        249      1.4308E-02  2.7774E-03 -1.0289E-08   0.000     -3.8723E-09  3.0647E-03 
        250      1.4306E-02  4.8546E-03 -6.4343E-09   0.000     -3.5301E-09  1.3143E-03 
        251      1.4305E-02  5.5083E-03 -3.3172E-09   0.000     -2.6619E-09  1.7733E-04 
        252      1.4303E-02  5.2877E-03 -1.1482E-09   0.000     -1.5581E-09 -4.8942E-04 
        253      1.4302E-02  4.5848E-03 -2.7703E-10   0.000     -1.5376E-11 -8.2498E-04 
        254      1.4300E-02  3.6766E-03 -1.1444E-09   0.000      1.6764E-09 -9.2859E-04 
        255      1.4299E-02  2.7517E-03 -3.5344E-09   0.000      2.8109E-09 -8.8881E-04 
        256      1.4297E-02  1.9117E-03 -6.6229E-09   0.000      3.0966E-09 -7.7355E-04 
        257      1.4296E-02  1.2110E-03 -9.5664E-09   0.000      2.4230E-09 -6.2050E-04 
        258      1.4294E-02  6.7200E-04 -1.1289E-08   0.000      7.0150E-10 -4.6005E-04 
        259      1.4293E-02  2.8824E-04 -1.0892E-08   0.000     -1.4792E-09 -3.1567E-04 
        260      1.4291E-02  3.6275E-05 -8.4076E-09   0.000     -3.2224E-09 -1.9781E-04 
        261      1.4290E-02 -1.1204E-04 -4.5758E-09   0.000     -4.2061E-09 -1.0808E-04 
        262      1.4288E-02 -1.8420E-04 -1.1327E-10   0.000     -4.4924E-09 -4.4301E-05 
        263      1.4287E-02 -2.0434E-04  4.3111E-09   0.000     -4.1987E-09 -2.7249E-06 
        264      1.4285E-02 -1.9254E-04  8.1893E-09   0.000     -3.3439E-09  2.1513E-05 
        265      1.4283E-02 -1.6338E-04  1.0904E-08   0.000     -1.9313E-09  3.3390E-05 
        266      1.4282E-02 -1.2725E-04  1.1983E-08   0.000     -1.1309E-10  3.6406E-05 
        267      1.4280E-02 -9.1546E-05  1.1088E-08   0.000      1.9459E-09  3.3609E-05 
        268      1.4278E-02 -6.0520E-05  8.1363E-09   0.000      3.7386E-09  2.7902E-05 
        269      1.4277E-02 -3.5891E-05  3.7534E-09   0.000      4.6966E-09  2.1323E-05 
        270      1.4275E-02 -1.7816E-05 -1.0844E-09   0.000      4.6278E-09  1.5105E-05 
        271      1.4274E-02 -5.5181E-06 -5.2838E-09   0.000      3.2666E-09  9.8733E-06 
        272      1.4272E-02  2.1225E-06 -7.4152E-09   0.000      7.1682E-10  5.7966E-06 
        273      1.4270E-02  6.2608E-06 -6.6699E-09   0.000     -2.1134E-09  2.8368E-06 
        274      1.4269E-02  7.9572E-06 -3.2972E-09   0.000     -4.3013E-09  8.4412E-07 
        275      1.4267E-02  8.0736E-06  1.7337E-09   0.000     -5.3154E-09 -4.0212E-07 
        276      1.4265E-02  7.2447E-06  7.1059E-09   0.000     -4.9907E-09 -1.0991E-06 
        277      1.4263E-02  5.9436E-06  1.1581E-08   0.000     -3.8816E-09 -1.3880E-06 
        278      1.4262E-02  4.5165E-06  1.4919E-08   0.000     -3.0672E-09 -1.3911E-06 
        279      1.4260E-02  3.1889E-06  1.7838E-08   0.000     -2.9752E-09 -1.2310E-06 
        280      1.4258E-02  2.0662E-06  2.0912E-08   0.000     -3.1320E-09 -1.0015E-06 
        281      1.4257E-02  1.1889E-06  2.3997E-08   0.000     -2.6802E-09 -7.5496E-07 
        282      1.4255E-02  5.5310E-07  2.6102E-08   0.000     -1.2288E-09 -5.2810E-07 
        283      1.4253E-02  1.2634E-07  2.6378E-08   0.000      6.7280E-10 -3.3945E-07 
        284      1.4251E-02 -1.3288E-07  2.4803E-08   0.000      2.3024E-09 -1.9339E-07 
        285      1.4250E-02 -2.6735E-07  2.1882E-08   0.000      3.2973E-09 -8.8897E-08 
        286      1.4248E-02 -3.1683E-07  1.8351E-08   0.000      3.4404E-09 -2.1334E-08 
        287      1.4246E-02 -3.1486E-07  1.5141E-08   0.000      2.7568E-09  1.7180E-08 
        288      1.4244E-02 -2.8575E-07  1.2894E-08   0.000      1.7398E-09  3.6034E-08 
        289      1.4243E-02 -2.4473E-07  1.1642E-08   0.000      8.3688E-10  4.3324E-08 
        290      1.4241E-02 -2.0013E-07  1.1191E-08   0.000      1.1590E-10  4.4501E-08 
        291      1.4239E-02 -1.5630E-07  1.1376E-08   0.000     -3.9027E-10  4.2298E-08 
        292      1.4237E-02 -1.1591E-07  1.1871E-08   0.000     -3.0258E-10  3.7869E-08 
        293      1.4235E-02 -8.0915E-08  1.1861E-08   0.000      4.9315E-10  3.1339E-08 
        294      1.4234E-02 -5.3587E-08  1.0822E-08   0.000      1.6561E-09  2.2731E-08 
        295      1.4232E-02 -3.5589E-08  8.5598E-09   0.000      2.7503E-09  1.3342E-08 
        296      1.4230E-02 -2.6705E-08  5.4237E-09   0.000      3.2521E-09  5.1688E-09 
        297      1.4228E-02 -2.4718E-08  2.1758E-09   0.000      3.0497E-09  1.9258E-10 
        298      1.4226E-02 -2.5611E-08 -5.8027E-10   0.000      2.2820E-09 -5.9448E-10 
        299      1.4224E-02 -2.5376E-08 -2.3151E-09   0.000      1.0818E-09  1.7633E-09 
        300      1.4222E-02 -2.1883E-08 -2.7030E-09   0.000     -3.6272E-10  5.3224E-09 
        301      1.4221E-02 -1.4832E-08 -1.5674E-09   0.000     -1.9434E-09  8.2941E-09 
        302      1.4219E-02 -5.6323E-09  1.1946E-09   0.000     -3.5806E-09  9.2890E-09 
        303      1.4217E-02  3.3798E-09  5.4952E-09   0.000     -4.6246E-09  8.1170E-09 
        304      1.4215E-02  1.0334E-08  1.0187E-08   0.000     -4.1602E-09  5.3458E-09 
        305      1.4213E-02  1.3876E-08  1.3588E-08   0.000     -2.3617E-09  1.4196E-09 
        306      1.4211E-02  1.3100E-08  1.4853E-08   0.000     -2.1618E-10 -2.9357E-09 
        307      1.4209E-02  8.0986E-09  1.4067E-08   0.000      1.6599E-09 -6.7393E-09 
        308      1.4207E-02 -1.6982E-10  1.1612E-08   0.000      3.0647E-09 -9.3092E-09 
        309      1.4205E-02 -1.0260E-08  8.0400E-09   0.000      3.8662E-09 -1.0349E-08 
        310      1.4203E-02 -2.0641E-08  3.9755E-09   0.000      4.1033E-09 -1.0037E-08 
        311      1.4201E-02 -3.0120E-08 -8.0634E-11   0.000      3.8285E-09 -8.4543E-09 
        312      1.4199E-02 -3.7316E-08 -3.5755E-09   0.000      2.9273E-09 -5.4933E-09 
        313      1.4197E-02 -4.0905E-08 -5.8225E-09   0.000      1.3675E-09 -1.3402E-09 
        314      1.4196E-02 -3.9914E-08 -6.2686E-09   0.000     -4.3078E-10  3.3005E-09 
        315      1.4194E-02 -3.4415E-08 -5.0657E-09   0.000     -1.6196E-09  7.2887E-09 
        316      1.4192E-02 -2.5564E-08 -3.1687E-09   0.000     -1.9841E-09  9.9254E-09 
        317      1.4190E-02 -1.4810E-08 -1.2029E-09   0.000     -1.7213E-09  1.1115E-08 
        318      1.4188E-02 -3.5008E-09  2.0646E-10   0.000     -1.0608E-09  1.1335E-08 
        319      1.4186E-02  7.8514E-09  9.0053E-10   0.000     -2.8167E-10  1.1504E-08 
        320      1.4184E-02  1.9563E-08  7.2128E-10   0.000      7.8438E-10  1.2000E-08 
        321      1.4182E-02  3.1821E-08 -7.1717E-10   0.000      2.1268E-09  1.2333E-08 
        322      1.4179E-02  4.4072E-08 -3.4676E-09   0.000      3.0860E-09  1.1750E-08 
        323      1.4177E-02  5.5063E-08 -6.7164E-09   0.000      3.0241E-09  9.6513E-09 
        324      1.4175E-02  6.3118E-08 -9.2846E-09   0.000      1.5930E-09  6.0412E-09 
        325      1.4173E-02  6.6986E-08 -9.6993E-09   0.000     -1.0306E-09  1.4801E-09 
        326      1.4171E-02  6.6037E-08 -7.2128E-09   0.000     -3.7156E-09 -3.3303E-09 
        327      1.4169E-02  6.0306E-08 -2.4481E-09   0.000     -5.3476E-09 -8.2718E-09 
        328      1.4167E-02  4.9458E-08  3.2469E-09   0.000     -5.5845E-09 -1.3413E-08 
        329      1.4165E-02  3.3606E-08  8.4530E-09   0.000     -4.2326E-09 -1.7809E-08 
        330      1.4163E-02  1.4169E-08  1.1478E-08   0.000     -1.5108E-09 -2.0284E-08 
        331      1.4161E-02 -6.5552E-09  1.1427E-08   0.000      1.4891E-09 -2.0360E-08 
        332      1.4159E-02 -2.6165E-08  8.6592E-09   0.000      3.5500E-09 -1.8160E-08 
        333      1.4157E-02 -4.2550E-08  4.6130E-09   0.000      3.9143E-09 -1.4048E-08 
        334      1.4155E-02 -5.4098E-08  1.1512E-09   0.000      2.3944E-09 -8.9676E-09 
        335      1.4152E-02 -6.0443E-08 -9.7148E-12   0.000     -9.8530E-11 -3.6301E-09 
        336      1.4150E-02 -6.1327E-08  1.2511E-09   0.000     -2.0358E-09  1.8703E-09 
        337      1.4148E-02 -5.6770E-08  3.8563E-09   0.000     -2.7598E-09  6.9695E-09 
        338      1.4146E-02 -4.7556E-08  6.5755E-09   0.000     -2.3316E-09  1.1092E-08 
        339      1.4144E-02 -3.4752E-08  8.4178E-09   0.000     -1.2997E-09  1.4231E-08 
        340      1.4142E-02 -1.9224E-08  9.1873E-09   0.000     -3.4084E-10  1.6602E-08 
        341      1.4139E-02 -1.6741E-09  9.1993E-09   0.000      3.5448E-11  1.8235E-08 
        342      1.4137E-02  1.7059E-08  9.1824E-09   0.000      2.8235E-11  1.8760E-08 
        343      1.4135E-02  3.5489E-08  9.0916E-09   0.000      3.2235E-10  1.7173E-08 
        344      1.4133E-02  5.0882E-08  8.4155E-09   0.000      1.3338E-09  1.2504E-08 
        345      1.4131E-02  6.0029E-08  6.3562E-09   0.000      2.7517E-09  5.0671E-09 
        346      1.4129E-02  6.0808E-08  2.9268E-09   0.000      4.0936E-09 -3.6073E-09 
        347      1.4126E-02  5.2938E-08 -1.7774E-09   0.000      5.1104E-09 -1.1541E-08 
        348      1.4124E-02  3.8191E-08 -7.1403E-09   0.000      5.2277E-09 -1.6727E-08 
        349      1.4122E-02  2.0102E-08 -1.2090E-08   0.000      4.5199E-09 -1.8254E-08 
        350      1.4120E-02  2.1993E-09 -1.6211E-08   0.000      3.9879E-09 -1.6723E-08 
        351      1.4117E-02 -1.3042E-08 -2.0152E-08   0.000      3.9630E-09 -1.3407E-08 
        352      1.4115E-02 -2.4501E-08 -2.4138E-08   0.000      3.9563E-09 -9.4204E-09 
        353      1.4113E-02 -3.1946E-08 -2.8001E-08   0.000      3.5734E-09 -5.8082E-09 
        354      1.4111E-02 -3.6296E-08 -3.1161E-08   0.000      2.4591E-09 -3.2511E-09 
        355      1.4108E-02 -3.8556E-08 -3.2785E-08   0.000      5.5762E-10 -1.3418E-09 
        356      1.4106E-02 -3.8973E-08 -3.2224E-08   0.000     -1.6465E-09  5.9997E-10 
        357      1.4104E-02 -3.7272E-08 -2.9583E-08   0.000     -3.3282E-09  3.0424E-09 
        358      1.4101E-02 -3.2786E-08 -2.5682E-08   0.000     -4.3382E-09  6.0841E-09 
        359      1.4099E-02 -2.5105E-08 -2.0974E-08   0.000     -4.9388E-09  9.1092E-09 
        360      1.4097E-02 -1.4761E-08 -1.5880E-08   0.000     -5.0909E-09  1.0991E-08 
        361      1.4095E-02 -3.4515E-09 -1.0878E-08   0.000     -4.7437E-09  1.0925E-08 
        362      1.4092E-02  6.6683E-09 -6.4537E-09   0.000     -4.0427E-09  8.3694E-09 
        363      1.4090E-02  1.2910E-08 -2.8060E-09   0.000     -3.2697E-09  3.5844E-09 
        364      1.4088E-02  1.3659E-08  1.1258E-10   0.000     -2.6601E-09 -2.2637E-09 
        365      1.4085E-02  8.4147E-09  2.5567E-09   0.000     -2.3095E-09 -7.9143E-09 
        366      1.4083E-02 -1.8565E-09  4.7927E-09   0.000     -2.3237E-09 -1.1711E-08 
        367      1.4080E-02 -1.4499E-08  7.2464E-09   0.000     -2.5926E-09 -1.2507E-08 
        368      1.4078E-02 -2.6364E-08  9.9825E-09   0.000     -2.9000E-09 -1.0308E-08 
        369      1.4076E-02 -3.4761E-08  1.3046E-08   0.000     -3.1981E-09 -6.0063E-09 
        370      1.4073E-02 -3.8283E-08  1.6308E-08   0.000     -3.0806E-09 -1.1516E-09 
        371      1.4071E-02 -3.7227E-08  1.9064E-08   0.000     -2.1225E-09  2.7350E-09 
        372      1.4069E-02 -3.3168E-08  2.0429E-08   0.000     -4.3182E-10  4.5189E-09 
        373      1.4066E-02 -2.8589E-08  1.9869E-08   0.000      1.6045E-09  3.9255E-09 
        374      1.4064E-02 -2.5657E-08  1.7258E-08   0.000      3.4165E-09  1.3176E-09 
        375      1.4061E-02 -2.6143E-08  1.3164E-08   0.000      4.4753E-09 -2.4092E-09 
        376      1.4059E-02 -3.0428E-08  8.4582E-09   0.000      4.6473E-09 -5.8623E-09 
        377      1.4056E-02 -3.7611E-08  3.9937E-09   0.000      4.0879E-09 -7.7995E-09 
        378      1.4054E-02 -4.5641E-08  3.4825E-10   0.000      3.1448E-09 -7.4620E-09 
        379      1.4052E-02 -5.2208E-08 -2.3014E-09   0.000      2.2285E-09 -5.1837E-09 
        380      1.4049E-02 -5.5857E-08 -4.1053E-09   0.000      1.2896E-09 -2.0100E-09 
        381      1.4047E-02 -5.6266E-08 -4.8261E-09   0.000      3.2936E-11  9.3722E-10 
        382      1.4044E-02 -5.4158E-08 -4.1098E-09   0.000     -1.5842E-09  2.8554E-09 
        383      1.4042E-02 -5.0744E-08 -1.6339E-09   0.000     -3.3349E-09  3.6611E-09 
        384      1.4039E-02 -4.6946E-08  2.4644E-09   0.000     -4.5246E-09  3.8147E-09 
        385      1.4037E-02 -4.3123E-08  7.2316E-09   0.000     -4.6316E-09  3.9083E-09 
        386      1.4034E-02 -3.9093E-08  1.1532E-08   0.000     -3.5892E-09  4.2203E-09 
        387      1.4032E-02 -3.4617E-08  1.4283E-08   0.000     -1.7958E-09  4.9242E-09 
        388      1.4029E-02 -2.9199E-08  1.5110E-08   0.000      8.4322E-11  5.9007E-09 
        389      1.4027E-02 -2.2837E-08  1.4152E-08   0.000      1.7327E-09  6.7642E-09 
        390      1.4024E-02 -1.5681E-08  1.1702E-08   0.000      3.0537E-09  7.5769E-09 
        391      1.4022E-02 -7.6832E-09  8.0888E-09   0.000      4.1088E-09  8.3917E-09 
        392      1.4019E-02  1.0463E-09  3.6077E-09   0.000      4.4243E-09  8.8746E-09 
        393      1.4016E-02  9.9176E-09 -5.2865E-10   0.000      3.3898E-09  8.4891E-09 
        394      1.4014E-02  1.7868E-08 -3.0268E-09   0.000      1.5027E-09  7.1850E-09 
        395      1.4011E-02  2.4204E-08 -3.5643E-09   0.000     -2.0850E-10  5.3743E-09 
        396      1.4009E-02  2.8532E-08 -2.7604E-09   0.000     -1.0298E-09  3.0697E-09 
        397      1.4006E-02  3.0223E-08 -1.6720E-09   0.000     -8.7135E-10  5.7277E-11 
        398      1.4004E-02  2.8491E-08 -1.0699E-09   0.000     -4.0193E-10 -3.8771E-09 
        399      1.4001E-02  2.2399E-08 -8.0688E-10   0.000     -2.7823E-10 -8.2124E-09 
        400      1.3998E-02  1.2266E-08 -4.7010E-10   0.000     -4.0872E-10 -1.1378E-08 
        401      1.3996E-02   0.000       0.000       0.000     -4.8297E-10 -1.2445E-08 

 MAXIMUM         3.2326E-02   1.000      3.0229E-08   0.000      1.2243E-08  0.3501    
 AT NODE               220         182          49           1          52         209

 MINIMUM        -4.2702E-02 -0.9889     -3.2785E-08   0.000     -1.0512E-08 -0.3666    
 AT NODE               190         220         355           1         230         186


          THE ANALYSIS HAS BEEN COMPLETED



                              ANALYSIS COMPLETE
                              WITH      5 WARNING MESSAGES ON THE DAT FILE



     JOB TIME SUMMARY
       USER TIME (SEC)      =   7.2000    
       SYSTEM TIME (SEC)    =   1.7000    
       TOTAL CPU TIME (SEC) =   8.9000    
       WALLCLOCK TIME (SEC) =          9
